[H]c1c([H])c([H])c(C([H])([H])OC(=O)N2C([H])([H])C([H])([H])C([H])(Sc3c(Br)c([H])c([H])c([H])c3OC([H])([H])[H])C([H])([H])C2([H])[H])c([H])c1[H]
     RDKit          3D

 48 50  0  0  0  0  0  0  0  0999 V2000
   -4.3981    2.3418    0.0839 C   0  0  0  0  0  0  0  0  0  0  0  0
   -3.9326    1.0138    0.0393 O   0  0  0  0  0  0  0  0  0  0  0  0
   -4.8033   -0.0304    0.0592 C   0  0  0  0  0  0  0  0  0  0  0  0
   -6.1732    0.2685    0.1240 C   0  0  0  0  0  0  0  0  0  0  0  0
   -7.1125   -0.7271    0.1462 C   0  0  0  0  0  0  0  0  0  0  0  0
   -6.6794   -2.0304    0.1033 C   0  0  0  0  0  0  0  0  0  0  0  0
   -5.3487   -2.3071    0.0407 C   0  0  0  0  0  0  0  0  0  0  0  0
   -4.8046   -4.1225   -0.0167 Br  0  0  0  0  0  0  0  0  0  0  0  0
   -4.3492   -1.3157    0.0161 C   0  0  0  0  0  0  0  0  0  0  0  0
   -2.7240   -1.8251   -0.0516 S   0  0  0  0  0  0  0  0  0  0  0  0
   -1.3412   -0.7969   -0.0486 C   0  0  0  0  0  0  0  0  0  0  0  0
   -1.2073    0.1101   -1.2497 C   0  0  0  0  0  0  0  0  0  0  0  0
    0.2940    0.0992   -1.6213 C   0  0  0  0  0  0  0  0  0  0  0  0
    0.9693    0.1665   -0.3293 N   0  0  0  0  0  0  0  0  0  0  0  0
    0.2595    0.8035    0.7786 C   0  0  0  0  0  0  0  0  0  0  0  0
   -0.9647   -0.0387    1.1868 C   0  0  0  0  0  0  0  0  0  0  0  0
    2.2763   -0.3718   -0.1495 C   0  0  0  0  0  0  0  0  0  0  0  0
    2.8307   -0.9074   -1.1356 O   0  0  0  0  0  0  0  0  0  0  0  0
    2.9443   -0.3257    1.0538 O   0  0  0  0  0  0  0  0  0  0  0  0
    4.2158   -0.8284    1.3016 C   0  0  0  0  0  0  0  0  0  0  0  0
    5.2951   -0.2378    0.4891 C   0  0  0  0  0  0  0  0  0  0  0  0
    5.8621   -0.9056   -0.5740 C   0  0  0  0  0  0  0  0  0  0  0  0
    6.8595   -0.2933   -1.2837 C   0  0  0  0  0  0  0  0  0  0  0  0
    7.2968    0.9759   -0.9455 C   0  0  0  0  0  0  0  0  0  0  0  0
    6.7392    1.6673    0.1226 C   0  0  0  0  0  0  0  0  0  0  0  0
    5.7297    1.0456    0.8398 C   0  0  0  0  0  0  0  0  0  0  0  0
   -4.9751    2.5245    1.0267 H   0  0  0  0  0  0  0  0  0  0  0  0
   -3.5838    3.0855   -0.0439 H   0  0  0  0  0  0  0  0  0  0  0  0
   -5.1426    2.5131   -0.7392 H   0  0  0  0  0  0  0  0  0  0  0  0
   -6.5298    1.2890    0.1585 H   0  0  0  0  0  0  0  0  0  0  0  0
   -8.1892   -0.4864    0.1969 H   0  0  0  0  0  0  0  0  0  0  0  0
   -7.4359   -2.8177    0.1214 H   0  0  0  0  0  0  0  0  0  0  0  0
   -0.4153   -1.5216   -0.1666 H   0  0  0  0  0  0  0  0  0  0  0  0
   -1.8463   -0.1819   -2.0779 H   0  0  0  0  0  0  0  0  0  0  0  0
   -1.3770    1.1811   -0.9863 H   0  0  0  0  0  0  0  0  0  0  0  0
    0.4861    0.9782   -2.2498 H   0  0  0  0  0  0  0  0  0  0  0  0
    0.4832   -0.8640   -2.1384 H   0  0  0  0  0  0  0  0  0  0  0  0
    0.9712    0.8947    1.6406 H   0  0  0  0  0  0  0  0  0  0  0  0
   -0.0573    1.8008    0.4301 H   0  0  0  0  0  0  0  0  0  0  0  0
   -0.5174   -0.7716    1.9306 H   0  0  0  0  0  0  0  0  0  0  0  0
   -1.7226    0.5572    1.6594 H   0  0  0  0  0  0  0  0  0  0  0  0
    4.5195   -0.7127    2.3659 H   0  0  0  0  0  0  0  0  0  0  0  0
    4.2127   -1.9400    1.1325 H   0  0  0  0  0  0  0  0  0  0  0  0
    5.5353   -1.8853   -0.8449 H   0  0  0  0  0  0  0  0  0  0  0  0
    7.3579   -0.7582   -2.1384 H   0  0  0  0  0  0  0  0  0  0  0  0
    8.0877    1.4448   -1.5196 H   0  0  0  0  0  0  0  0  0  0  0  0
    7.1061    2.6588    0.3595 H   0  0  0  0  0  0  0  0  0  0  0  0
    5.2993    1.5834    1.6668 H   0  0  0  0  0  0  0  0  0  0  0  0
  1  2  1  0
  2  3  1  0
  3  4  2  0
  4  5  1  0
  5  6  2  0
  6  7  1  0
  7  8  1  0
  7  9  2  0
  9 10  1  0
 10 11  1  0
 11 12  1  0
 12 13  1  0
 13 14  1  0
 14 15  1  0
 15 16  1  0
 14 17  1  0
 17 18  2  0
 17 19  1  0
 19 20  1  0
 20 21  1  0
 21 22  2  0
 22 23  1  0
 23 24  2  0
 24 25  1  0
 25 26  2  0
  9  3  1  0
 16 11  1  0
 26 21  1  0
  1 27  1  0
  1 28  1  0
  1 29  1  0
  4 30  1  0
  5 31  1  0
  6 32  1  0
 11 33  1  0
 12 34  1  0
 12 35  1  0
 13 36  1  0
 13 37  1  0
 15 38  1  0
 15 39  1  0
 16 40  1  0
 16 41  1  0
 20 42  1  0
 20 43  1  0
 22 44  1  0
 23 45  1  0
 24 46  1  0
 25 47  1  0
 26 48  1  0
M  END
$$$$
[H]c1c([H])c(C([H])([H])N2C([H])([H])C([H])([H])N(S(=O)(=O)C([H])([H])[H])C([H])([H])C2([H])[H])c([H])c([H])c1[N+](=O)[O-]
     RDKit          3D

 37 38  0  0  0  0  0  0  0  0999 V2000
    4.0379   -1.8123    0.7340 C   0  0  0  0  0  0  0  0  0  0  0  0
    4.3520   -0.5025   -0.3991 S   0  0  0  0  0  0  0  0  0  0  0  0
    4.8887   -0.9793   -1.7144 O   0  0  0  0  0  0  0  0  0  0  0  0
    5.4410    0.3747    0.2046 O   0  0  0  0  0  0  0  0  0  0  0  0
    2.9960    0.5081   -0.6651 N   0  0  0  0  0  0  0  0  0  0  0  0
    2.5500    1.1717    0.5400 C   0  0  0  0  0  0  0  0  0  0  0  0
    1.3466    1.9976    0.1787 C   0  0  0  0  0  0  0  0  0  0  0  0
    0.2333    1.1881   -0.3155 N   0  0  0  0  0  0  0  0  0  0  0  0
   -0.8154    1.3209    0.6572 C   0  0  0  0  0  0  0  0  0  0  0  0
   -2.0659    0.6216    0.3569 C   0  0  0  0  0  0  0  0  0  0  0  0
   -2.4804    0.2957   -0.9159 C   0  0  0  0  0  0  0  0  0  0  0  0
   -3.6824   -0.3750   -1.1401 C   0  0  0  0  0  0  0  0  0  0  0  0
   -4.5043   -0.7387   -0.0953 C   0  0  0  0  0  0  0  0  0  0  0  0
   -4.0987   -0.4173    1.1822 C   0  0  0  0  0  0  0  0  0  0  0  0
   -2.9086    0.2463    1.3990 C   0  0  0  0  0  0  0  0  0  0  0  0
   -5.7358   -1.4237   -0.3026 N   0  0  0  0  0  0  0  0  0  0  0  0
   -6.1681   -1.7585   -1.5628 O   0  0  0  0  0  0  0  0  0  0  0  0
   -6.4462   -1.7321    0.6694 O   0  0  0  0  0  0  0  0  0  0  0  0
    0.6854   -0.1795   -0.4719 C   0  0  0  0  0  0  0  0  0  0  0  0
    1.9236   -0.1269   -1.3778 C   0  0  0  0  0  0  0  0  0  0  0  0
    4.4153   -2.7670    0.2795 H   0  0  0  0  0  0  0  0  0  0  0  0
    2.9684   -1.9573    0.9340 H   0  0  0  0  0  0  0  0  0  0  0  0
    4.6038   -1.7078    1.6933 H   0  0  0  0  0  0  0  0  0  0  0  0
    3.3544    1.9005    0.8088 H   0  0  0  0  0  0  0  0  0  0  0  0
    2.3818    0.4487    1.3403 H   0  0  0  0  0  0  0  0  0  0  0  0
    1.6683    2.6554   -0.6805 H   0  0  0  0  0  0  0  0  0  0  0  0
    1.0319    2.6986    0.9750 H   0  0  0  0  0  0  0  0  0  0  0  0
   -0.4206    0.9401    1.6285 H   0  0  0  0  0  0  0  0  0  0  0  0
   -0.9753    2.4145    0.8175 H   0  0  0  0  0  0  0  0  0  0  0  0
   -1.8627    0.5671   -1.7642 H   0  0  0  0  0  0  0  0  0  0  0  0
   -4.0084   -0.6310   -2.1378 H   0  0  0  0  0  0  0  0  0  0  0  0
   -4.7665   -0.7160    1.9926 H   0  0  0  0  0  0  0  0  0  0  0  0
   -2.5999    0.4950    2.4214 H   0  0  0  0  0  0  0  0  0  0  0  0
    0.9138   -0.6793    0.4809 H   0  0  0  0  0  0  0  0  0  0  0  0
   -0.0470   -0.7829   -1.0050 H   0  0  0  0  0  0  0  0  0  0  0  0
    1.6391    0.5483   -2.2254 H   0  0  0  0  0  0  0  0  0  0  0  0
    2.1549   -1.1055   -1.7910 H   0  0  0  0  0  0  0  0  0  0  0  0
  1  2  1  0
  2  3  2  0
  2  4  2  0
  2  5  1  0
  5  6  1  0
  6  7  1  0
  7  8  1  0
  8  9  1  0
  9 10  1  0
 10 11  2  0
 11 12  1  0
 12 13  2  0
 13 14  1  0
 14 15  2  0
 13 16  1  0
 16 17  1  0
 16 18  2  0
  8 19  1  0
 19 20  1  0
 20  5  1  0
 15 10  1  0
  1 21  1  0
  1 22  1  0
  1 23  1  0
  6 24  1  0
  6 25  1  0
  7 26  1  0
  7 27  1  0
  9 28  1  0
  9 29  1  0
 11 30  1  0
 12 31  1  0
 14 32  1  0
 15 33  1  0
 19 34  1  0
 19 35  1  0
 20 36  1  0
 20 37  1  0
M  CHG  2  16   1  17  -1
M  END
$$$$
[H]c1nc(N([H])[H])c2c(n1)C1(C([H])([H])C(=O)N2C([H])([H])c2c([H])c([H])nc(OC([H])([H])[H])c2OC([H])([H])[H])C([H])([H])C([H])([H])N(C([H])([H])[H])C([H])([H])C1([H])[H]
     RDKit          3D

 55 58  0  0  0  0  0  0  0  0999 V2000
    2.9368    1.9077   -1.8476 C   0  0  0  0  0  0  0  0  0  0  0  0
    2.5941    1.3443   -0.5406 O   0  0  0  0  0  0  0  0  0  0  0  0
    3.3515    0.2028   -0.2073 C   0  0  0  0  0  0  0  0  0  0  0  0
    2.9769   -1.0678   -0.3068 C   0  0  0  0  0  0  0  0  0  0  0  0
    1.6763   -1.5608   -0.7879 C   0  0  0  0  0  0  0  0  0  0  0  0
    0.4350   -1.0142   -0.5175 N   0  0  0  0  0  0  0  0  0  0  0  0
   -0.1465    0.0226   -1.4001 C   0  0  0  0  0  0  0  0  0  0  0  0
    0.1069   -0.0486   -2.6212 O   0  0  0  0  0  0  0  0  0  0  0  0
   -0.9945    1.1021   -0.8881 C   0  0  0  0  0  0  0  0  0  0  0  0
   -2.2119    0.5029   -0.2144 C   0  0  0  0  0  0  0  0  0  0  0  0
   -3.0683   -0.0951   -1.3100 C   0  0  0  0  0  0  0  0  0  0  0  0
   -4.3900   -0.5374   -0.7713 C   0  0  0  0  0  0  0  0  0  0  0  0
   -5.0770    0.5297   -0.1247 N   0  0  0  0  0  0  0  0  0  0  0  0
   -5.9577    1.2869   -0.9544 C   0  0  0  0  0  0  0  0  0  0  0  0
   -4.3566    1.2537    0.8616 C   0  0  0  0  0  0  0  0  0  0  0  0
   -2.9345    1.5641    0.5409 C   0  0  0  0  0  0  0  0  0  0  0  0
   -1.7257   -0.6016    0.6485 C   0  0  0  0  0  0  0  0  0  0  0  0
   -2.5548   -0.9978    1.6672 N   0  0  0  0  0  0  0  0  0  0  0  0
   -2.2410   -1.9673    2.5268 C   0  0  0  0  0  0  0  0  0  0  0  0
   -1.0808   -2.6176    2.4403 N   0  0  0  0  0  0  0  0  0  0  0  0
   -0.2063   -2.2730    1.4459 C   0  0  0  0  0  0  0  0  0  0  0  0
    0.9846   -3.0163    1.3744 N   0  0  0  0  0  0  0  0  0  0  0  0
   -0.5052   -1.2796    0.5511 C   0  0  0  0  0  0  0  0  0  0  0  0
    3.9144   -2.0393    0.0621 C   0  0  0  0  0  0  0  0  0  0  0  0
    5.1420   -1.7197    0.5044 C   0  0  0  0  0  0  0  0  0  0  0  0
    5.4988   -0.4345    0.6022 N   0  0  0  0  0  0  0  0  0  0  0  0
    4.6399    0.5291    0.2595 C   0  0  0  0  0  0  0  0  0  0  0  0
    5.0401    1.8630    0.3718 O   0  0  0  0  0  0  0  0  0  0  0  0
    6.3377    2.1583    0.8428 C   0  0  0  0  0  0  0  0  0  0  0  0
    3.9887    2.2135   -1.8646 H   0  0  0  0  0  0  0  0  0  0  0  0
    2.7973    1.0498   -2.5409 H   0  0  0  0  0  0  0  0  0  0  0  0
    2.2175    2.6843   -2.1295 H   0  0  0  0  0  0  0  0  0  0  0  0
    1.7144   -2.6593   -1.0341 H   0  0  0  0  0  0  0  0  0  0  0  0
    1.8401   -1.2769   -1.9073 H   0  0  0  0  0  0  0  0  0  0  0  0
   -1.3658    1.7090   -1.7346 H   0  0  0  0  0  0  0  0  0  0  0  0
   -0.4601    1.7917   -0.2048 H   0  0  0  0  0  0  0  0  0  0  0  0
   -2.5026   -0.8847   -1.8017 H   0  0  0  0  0  0  0  0  0  0  0  0
   -3.2801    0.7327   -2.0395 H   0  0  0  0  0  0  0  0  0  0  0  0
   -4.3405   -1.4550   -0.1514 H   0  0  0  0  0  0  0  0  0  0  0  0
   -5.0180   -0.8329   -1.6630 H   0  0  0  0  0  0  0  0  0  0  0  0
   -6.0565    0.7215   -1.9261 H   0  0  0  0  0  0  0  0  0  0  0  0
   -5.6672    2.3278   -1.1182 H   0  0  0  0  0  0  0  0  0  0  0  0
   -6.9825    1.2183   -0.4992 H   0  0  0  0  0  0  0  0  0  0  0  0
   -4.8822    2.2455    0.9968 H   0  0  0  0  0  0  0  0  0  0  0  0
   -4.4300    0.7787    1.8780 H   0  0  0  0  0  0  0  0  0  0  0  0
   -2.9259    2.4902   -0.1062 H   0  0  0  0  0  0  0  0  0  0  0  0
   -2.3731    1.7864    1.4711 H   0  0  0  0  0  0  0  0  0  0  0  0
   -2.9281   -2.2415    3.3117 H   0  0  0  0  0  0  0  0  0  0  0  0
    1.1562   -3.8231    0.7725 H   0  0  0  0  0  0  0  0  0  0  0  0
    1.7435   -2.6999    2.0419 H   0  0  0  0  0  0  0  0  0  0  0  0
    3.6406   -3.1082   -0.0195 H   0  0  0  0  0  0  0  0  0  0  0  0
    5.8295   -2.5172    0.7773 H   0  0  0  0  0  0  0  0  0  0  0  0
    6.8393    2.9396    0.2433 H   0  0  0  0  0  0  0  0  0  0  0  0
    6.2777    2.5543    1.8931 H   0  0  0  0  0  0  0  0  0  0  0  0
    6.9840    1.2589    0.8800 H   0  0  0  0  0  0  0  0  0  0  0  0
  1  2  1  0
  2  3  1  0
  3  4  2  0
  4  5  1  0
  5  6  1  0
  6  7  1  0
  7  8  2  0
  7  9  1  0
  9 10  1  0
 10 11  1  0
 11 12  1  0
 12 13  1  0
 13 14  1  0
 13 15  1  0
 15 16  1  0
 10 17  1  0
 17 18  2  0
 18 19  1  0
 19 20  2  0
 20 21  1  0
 21 22  1  0
 21 23  2  0
  4 24  1  0
 24 25  2  0
 25 26  1  0
 26 27  2  0
 27 28  1  0
 28 29  1  0
 27  3  1  0
 23  6  1  0
 16 10  1  0
 23 17  1  0
  1 30  1  0
  1 31  1  0
  1 32  1  0
  5 33  1  0
  5 34  1  0
  9 35  1  0
  9 36  1  0
 11 37  1  0
 11 38  1  0
 12 39  1  0
 12 40  1  0
 14 41  1  0
 14 42  1  0
 14 43  1  0
 15 44  1  0
 15 45  1  0
 16 46  1  0
 16 47  1  0
 19 48  1  0
 22 49  1  0
 22 50  1  0
 24 51  1  0
 25 52  1  0
 29 53  1  0
 29 54  1  0
 29 55  1  0
M  END
$$$$
[H]O[C@]1([H])C([H])([H])C([H])([H])C([H])([H])C([H])([H])[C@]1([H])N([H])C(=O)OC1([H])C([H])([H])C([H])([H])N(c2c([H])c([H])c([H])c(C#N)c2[H])C([H])([H])C1([H])[H]
     RDKit          3D

 50 52  0  0  0  0  0  0  0  0999 V2000
    8.2170    1.5329   -2.9358 N   0  0  0  0  0  0  0  0  0  0  0  0
    7.6429    0.9666   -2.1045 C   0  0  0  0  0  0  0  0  0  0  0  0
    6.9260    0.2803   -1.0529 C   0  0  0  0  0  0  0  0  0  0  0  0
    7.6116   -0.4952   -0.1484 C   0  0  0  0  0  0  0  0  0  0  0  0
    6.9015   -1.1366    0.8422 C   0  0  0  0  0  0  0  0  0  0  0  0
    5.5169   -1.0079    0.9333 C   0  0  0  0  0  0  0  0  0  0  0  0
    4.8110   -0.2322    0.0323 C   0  0  0  0  0  0  0  0  0  0  0  0
    5.5567    0.3939   -0.9445 C   0  0  0  0  0  0  0  0  0  0  0  0
    3.3798   -0.0881    0.1082 N   0  0  0  0  0  0  0  0  0  0  0  0
    2.7580    0.7853   -0.8445 C   0  0  0  0  0  0  0  0  0  0  0  0
    1.3605    1.1627   -0.5779 C   0  0  0  0  0  0  0  0  0  0  0  0
    0.5703    0.2266    0.2709 C   0  0  0  0  0  0  0  0  0  0  0  0
    1.2501   -1.1060    0.4810 C   0  0  0  0  0  0  0  0  0  0  0  0
    2.6242   -0.7886    1.0894 C   0  0  0  0  0  0  0  0  0  0  0  0
   -0.7320    0.0136   -0.2395 O   0  0  0  0  0  0  0  0  0  0  0  0
   -1.8656    0.3488    0.4723 C   0  0  0  0  0  0  0  0  0  0  0  0
   -1.7089    0.8583    1.6080 O   0  0  0  0  0  0  0  0  0  0  0  0
   -3.1854    0.1534    0.0007 N   0  0  0  0  0  0  0  0  0  0  0  0
   -4.3642    0.4979    0.7317 C   0  0  1  0  0  0  0  0  0  0  0  0
   -5.1921    1.5218   -0.0257 C   0  0  0  0  0  0  0  0  0  0  0  0
   -5.5679    1.0276   -1.3997 C   0  0  0  0  0  0  0  0  0  0  0  0
   -6.1159   -0.3525   -1.4153 C   0  0  0  0  0  0  0  0  0  0  0  0
   -5.5405   -1.2943   -0.4185 C   0  0  0  0  0  0  0  0  0  0  0  0
   -5.2561   -0.7108    0.9274 C   0  0  1  0  0  0  0  0  0  0  0  0
   -4.6330   -1.6860    1.7026 O   0  0  0  0  0  0  0  0  0  0  0  0
    8.6872   -0.5725   -0.2496 H   0  0  0  0  0  0  0  0  0  0  0  0
    7.4603   -1.7416    1.5432 H   0  0  0  0  0  0  0  0  0  0  0  0
    5.0102   -1.5185    1.7120 H   0  0  0  0  0  0  0  0  0  0  0  0
    5.0689    1.0164   -1.6838 H   0  0  0  0  0  0  0  0  0  0  0  0
    2.9112    0.3417   -1.8508 H   0  0  0  0  0  0  0  0  0  0  0  0
    3.3678    1.7377   -0.8383 H   0  0  0  0  0  0  0  0  0  0  0  0
    0.8251    1.2328   -1.5715 H   0  0  0  0  0  0  0  0  0  0  0  0
    1.2709    2.2088   -0.1625 H   0  0  0  0  0  0  0  0  0  0  0  0
    0.4491    0.6807    1.2760 H   0  0  0  0  0  0  0  0  0  0  0  0
    1.4261   -1.6677   -0.4354 H   0  0  0  0  0  0  0  0  0  0  0  0
    0.6477   -1.6518    1.2446 H   0  0  0  0  0  0  0  0  0  0  0  0
    3.0273   -1.7810    1.3769 H   0  0  0  0  0  0  0  0  0  0  0  0
    2.5096   -0.2191    2.0396 H   0  0  0  0  0  0  0  0  0  0  0  0
   -3.3211   -0.2725   -0.9510 H   0  0  0  0  0  0  0  0  0  0  0  0
   -4.1496    0.9514    1.7222 H   0  0  0  0  0  0  0  0  0  0  0  0
   -4.5341    2.4147   -0.1733 H   0  0  0  0  0  0  0  0  0  0  0  0
   -6.0633    1.8064    0.5653 H   0  0  0  0  0  0  0  0  0  0  0  0
   -4.7208    1.1972   -2.0812 H   0  0  0  0  0  0  0  0  0  0  0  0
   -6.3874    1.7166   -1.7607 H   0  0  0  0  0  0  0  0  0  0  0  0
   -5.9029   -0.7827   -2.4376 H   0  0  0  0  0  0  0  0  0  0  0  0
   -7.2329   -0.3641   -1.3202 H   0  0  0  0  0  0  0  0  0  0  0  0
   -4.6256   -1.8232   -0.7781 H   0  0  0  0  0  0  0  0  0  0  0  0
   -6.2903   -2.1266   -0.2785 H   0  0  0  0  0  0  0  0  0  0  0  0
   -6.2167   -0.4011    1.3967 H   0  0  0  0  0  0  0  0  0  0  0  0
   -4.1815   -1.2536    2.4666 H   0  0  0  0  0  0  0  0  0  0  0  0
  1  2  3  0
  2  3  1  0
  3  4  2  0
  4  5  1  0
  5  6  2  0
  6  7  1  0
  7  8  2  0
  7  9  1  0
  9 10  1  0
 10 11  1  0
 11 12  1  0
 12 13  1  0
 13 14  1  0
 12 15  1  0
 15 16  1  0
 16 17  2  0
 16 18  1  0
 18 19  1  0
 19 20  1  0
 20 21  1  0
 21 22  1  0
 22 23  1  0
 23 24  1  0
 24 25  1  0
  8  3  1  0
 14  9  1  0
 24 19  1  0
  4 26  1  0
  5 27  1  0
  6 28  1  0
  8 29  1  0
 10 30  1  0
 10 31  1  0
 11 32  1  0
 11 33  1  0
 12 34  1  0
 13 35  1  0
 13 36  1  0
 14 37  1  0
 14 38  1  0
 18 39  1  0
 19 40  1  1
 20 41  1  0
 20 42  1  0
 21 43  1  0
 21 44  1  0
 22 45  1  0
 22 46  1  0
 23 47  1  0
 23 48  1  0
 24 49  1  1
 25 50  1  0
M  END
$$$$
[H]OC([H])(C([H])([H])C(=O)N([H])[H])C([H])([H])C([H])([H])C([H])([H])[H]
     RDKit          3D

 22 21  0  0  0  0  0  0  0  0999 V2000
    3.1675   -0.3237   -0.0663 C   0  0  0  0  0  0  0  0  0  0  0  0
    1.6724   -0.4983   -0.3076 C   0  0  0  0  0  0  0  0  0  0  0  0
    0.9473    0.2657    0.7757 C   0  0  0  0  0  0  0  0  0  0  0  0
   -0.5502    0.1601    0.6320 C   0  0  0  0  0  0  0  0  0  0  0  0
   -0.9992   -1.1440    0.7019 O   0  0  0  0  0  0  0  0  0  0  0  0
   -1.0169    0.7320   -0.6979 C   0  0  0  0  0  0  0  0  0  0  0  0
   -2.4958    0.5953   -0.7709 C   0  0  0  0  0  0  0  0  0  0  0  0
   -3.2351    0.0054    0.3008 N   0  0  0  0  0  0  0  0  0  0  0  0
   -3.1578    0.9870   -1.7661 O   0  0  0  0  0  0  0  0  0  0  0  0
    3.6704   -1.0898   -0.7052 H   0  0  0  0  0  0  0  0  0  0  0  0
    3.4905    0.6802   -0.3837 H   0  0  0  0  0  0  0  0  0  0  0  0
    3.4456   -0.5034    0.9842 H   0  0  0  0  0  0  0  0  0  0  0  0
    1.3884   -1.5625   -0.3257 H   0  0  0  0  0  0  0  0  0  0  0  0
    1.4788   -0.0725   -1.3134 H   0  0  0  0  0  0  0  0  0  0  0  0
    1.2416    1.3291    0.7907 H   0  0  0  0  0  0  0  0  0  0  0  0
    1.2185   -0.1613    1.7616 H   0  0  0  0  0  0  0  0  0  0  0  0
   -1.0521    0.7316    1.4384 H   0  0  0  0  0  0  0  0  0  0  0  0
   -0.9206   -1.5895   -0.1786 H   0  0  0  0  0  0  0  0  0  0  0  0
   -0.6775    1.7631   -0.8125 H   0  0  0  0  0  0  0  0  0  0  0  0
   -0.6004    0.0423   -1.4800 H   0  0  0  0  0  0  0  0  0  0  0  0
   -3.4794   -0.9988    0.3377 H   0  0  0  0  0  0  0  0  0  0  0  0
   -3.5359    0.6521    1.0847 H   0  0  0  0  0  0  0  0  0  0  0  0
  1  2  1  0
  2  3  1  0
  3  4  1  0
  4  5  1  0
  4  6  1  0
  6  7  1  0
  7  8  1  0
  7  9  2  0
  1 10  1  0
  1 11  1  0
  1 12  1  0
  2 13  1  0
  2 14  1  0
  3 15  1  0
  3 16  1  0
  4 17  1  0
  5 18  1  0
  6 19  1  0
  6 20  1  0
  8 21  1  0
  8 22  1  0
M  END
$$$$
[H]c1c([H])c([H])c(-c2nnc(C3([H])C([H])([H])C([H])([H])N(c4c([H])c([H])c(N([H])C(=O)N([H])c5c([H])c([H])c([H])c(C(F)(F)F)c5[H])c(OC([H])([H])[H])c4[H])C([H])([H])C3([H])[H])c3c([H])c([H])c([H])c([H])c23)c([H])c1[H]
     RDKit          3D

 74 79  0  0  0  0  0  0  0  0999 V2000
   -3.3412   -3.4988   -0.1487 C   0  0  0  0  0  0  0  0  0  0  0  0
   -3.5596   -2.2022    0.1130 O   0  0  0  0  0  0  0  0  0  0  0  0
   -3.0026   -1.0228    0.1946 C   0  0  0  0  0  0  0  0  0  0  0  0
   -1.6972   -0.6604   -0.0357 C   0  0  0  0  0  0  0  0  0  0  0  0
   -1.2535    0.6199    0.1144 C   0  0  0  0  0  0  0  0  0  0  0  0
   -2.0889    1.6313    0.4901 C   0  0  0  0  0  0  0  0  0  0  0  0
   -3.4227    1.3021    0.7316 C   0  0  0  0  0  0  0  0  0  0  0  0
   -3.8728    0.0305    0.5956 C   0  0  0  0  0  0  0  0  0  0  0  0
   -5.1984   -0.2807    0.6435 N   0  0  0  0  0  0  0  0  0  0  0  0
   -6.4375   -0.5670    0.7064 C   0  0  0  0  0  0  0  0  0  0  0  0
   -7.4302   -0.6977    1.2913 O   0  0  0  0  0  0  0  0  0  0  0  0
   -6.7769   -0.9112   -0.8808 N   0  0  0  0  0  0  0  0  0  0  0  0
   -8.1731   -0.8841   -0.8810 C   0  0  0  0  0  0  0  0  0  0  0  0
   -9.0493   -1.8458   -1.0040 C   0  0  0  0  0  0  0  0  0  0  0  0
  -10.4279   -1.5241   -0.8137 C   0  0  0  0  0  0  0  0  0  0  0  0
  -10.8352   -0.2429   -0.5164 C   0  0  0  0  0  0  0  0  0  0  0  0
   -9.9232    0.7658   -0.3915 C   0  0  0  0  0  0  0  0  0  0  0  0
   -8.6342    0.4213   -0.5754 C   0  0  0  0  0  0  0  0  0  0  0  0
  -10.2498    2.1903    0.0386 C   0  0  0  0  0  0  0  0  0  0  0  0
  -11.0496    2.8610   -0.7828 F   0  0  0  0  0  0  0  0  0  0  0  0
   -8.9920    2.8226    0.1855 F   0  0  0  0  0  0  0  0  0  0  0  0
  -10.6963    2.0480    1.3624 F   0  0  0  0  0  0  0  0  0  0  0  0
    0.1200    0.8827    0.2898 N   0  0  0  0  0  0  0  0  0  0  0  0
    0.6073    0.0565    1.4572 C   0  0  0  0  0  0  0  0  0  0  0  0
    1.8146   -0.6926    1.0230 C   0  0  0  0  0  0  0  0  0  0  0  0
    2.7708    0.1672    0.2747 C   0  0  0  0  0  0  0  0  0  0  0  0
    2.2779    1.0298   -0.8145 C   0  0  0  0  0  0  0  0  0  0  0  0
    0.9786    1.7675   -0.3707 C   0  0  0  0  0  0  0  0  0  0  0  0
    4.1876    0.0676    0.5828 C   0  0  0  0  0  0  0  0  0  0  0  0
    4.7536    0.3029    1.7927 N   0  0  0  0  0  0  0  0  0  0  0  0
    6.0839    0.4956    1.9148 N   0  0  0  0  0  0  0  0  0  0  0  0
    6.9366    0.4837    0.9589 C   0  0  0  0  0  0  0  0  0  0  0  0
    8.3982    0.5558    0.9617 C   0  0  0  0  0  0  0  0  0  0  0  0
    8.9904   -0.7211    0.9487 C   0  0  0  0  0  0  0  0  0  0  0  0
   10.3615   -0.8193    0.8386 C   0  0  0  0  0  0  0  0  0  0  0  0
   11.1065    0.3379    0.7366 C   0  0  0  0  0  0  0  0  0  0  0  0
   10.5143    1.5720    0.7591 C   0  0  0  0  0  0  0  0  0  0  0  0
    9.1294    1.6899    0.8742 C   0  0  0  0  0  0  0  0  0  0  0  0
    6.4396    0.2485   -0.3436 C   0  0  0  0  0  0  0  0  0  0  0  0
    7.2564    0.1573   -1.4417 C   0  0  0  0  0  0  0  0  0  0  0  0
    6.7578   -0.1656   -2.7069 C   0  0  0  0  0  0  0  0  0  0  0  0
    5.4138   -0.3904   -2.8171 C   0  0  0  0  0  0  0  0  0  0  0  0
    4.5920   -0.2997   -1.7524 C   0  0  0  0  0  0  0  0  0  0  0  0
    5.1066    0.0411   -0.4811 C   0  0  0  0  0  0  0  0  0  0  0  0
   -2.8803   -4.0955    0.6932 H   0  0  0  0  0  0  0  0  0  0  0  0
   -2.8275   -3.6663   -1.1066 H   0  0  0  0  0  0  0  0  0  0  0  0
   -4.3693   -4.0747   -0.2331 H   0  0  0  0  0  0  0  0  0  0  0  0
   -0.9500   -1.4016   -0.3642 H   0  0  0  0  0  0  0  0  0  0  0  0
   -1.7400    2.6239    0.5474 H   0  0  0  0  0  0  0  0  0  0  0  0
   -4.1512    2.0754    1.0181 H   0  0  0  0  0  0  0  0  0  0  0  0
   -5.0748   -0.3269    2.0436 H   0  0  0  0  0  0  0  0  0  0  0  0
   -6.0412   -1.0429   -1.4543 H   0  0  0  0  0  0  0  0  0  0  0  0
   -8.7693   -2.8595   -1.2250 H   0  0  0  0  0  0  0  0  0  0  0  0
  -11.1391   -2.3189   -0.9049 H   0  0  0  0  0  0  0  0  0  0  0  0
  -11.8766   -0.0140   -0.3366 H   0  0  0  0  0  0  0  0  0  0  0  0
   -7.8599    1.1853   -0.5157 H   0  0  0  0  0  0  0  0  0  0  0  0
   -0.2170   -0.6026    1.8004 H   0  0  0  0  0  0  0  0  0  0  0  0
    0.8849    0.7918    2.2132 H   0  0  0  0  0  0  0  0  0  0  0  0
    1.4415   -1.5478    0.3944 H   0  0  0  0  0  0  0  0  0  0  0  0
    2.3099   -1.0713    1.9359 H   0  0  0  0  0  0  0  0  0  0  0  0
    2.6217    1.1305    1.1313 H   0  0  0  0  0  0  0  0  0  0  0  0
    1.9227    0.5996   -1.7524 H   0  0  0  0  0  0  0  0  0  0  0  0
    3.0263    1.8690   -0.9326 H   0  0  0  0  0  0  0  0  0  0  0  0
    0.5185    2.2604   -1.2523 H   0  0  0  0  0  0  0  0  0  0  0  0
    1.3253    2.5302    0.3699 H   0  0  0  0  0  0  0  0  0  0  0  0
    8.4425   -1.6143    1.0313 H   0  0  0  0  0  0  0  0  0  0  0  0
   10.8346   -1.8322    0.8348 H   0  0  0  0  0  0  0  0  0  0  0  0
   12.1744    0.2234    0.6088 H   0  0  0  0  0  0  0  0  0  0  0  0
   11.0532    2.4933    0.6753 H   0  0  0  0  0  0  0  0  0  0  0  0
    8.6266    2.6533    0.9096 H   0  0  0  0  0  0  0  0  0  0  0  0
    8.2980    0.3814   -1.3013 H   0  0  0  0  0  0  0  0  0  0  0  0
    7.4306   -0.1879   -3.5407 H   0  0  0  0  0  0  0  0  0  0  0  0
    4.9460   -0.6708   -3.7763 H   0  0  0  0  0  0  0  0  0  0  0  0
    3.5541   -0.6123   -1.7702 H   0  0  0  0  0  0  0  0  0  0  0  0
  1  2  1  0
  2  3  1  0
  3  4  2  0
  4  5  1  0
  5  6  2  0
  6  7  1  0
  7  8  2  0
  8  9  1  0
  9 10  1  0
 10 11  2  0
 10 12  1  0
 12 13  1  0
 13 14  2  0
 14 15  1  0
 15 16  2  0
 16 17  1  0
 17 18  2  0
 17 19  1  0
 19 20  1  0
 19 21  1  0
 19 22  1  0
  5 23  1  0
 23 24  1  0
 24 25  1  0
 25 26  1  0
 26 27  1  0
 27 28  1  0
 26 29  1  0
 29 30  2  0
 30 31  1  0
 31 32  2  0
 32 33  1  0
 33 34  2  0
 34 35  1  0
 35 36  2  0
 36 37  1  0
 37 38  2  0
 32 39  1  0
 39 40  2  0
 40 41  1  0
 41 42  2  0
 42 43  1  0
 43 44  2  0
  8  3  1  0
 18 13  1  0
 28 23  1  0
 44 29  1  0
 38 33  1  0
 44 39  1  0
  1 45  1  0
  1 46  1  0
  1 47  1  0
  4 48  1  0
  6 49  1  0
  7 50  1  0
  9 51  1  0
 12 52  1  0
 14 53  1  0
 15 54  1  0
 16 55  1  0
 18 56  1  0
 24 57  1  0
 24 58  1  0
 25 59  1  0
 25 60  1  0
 26 61  1  0
 27 62  1  0
 27 63  1  0
 28 64  1  0
 28 65  1  0
 34 66  1  0
 35 67  1  0
 36 68  1  0
 37 69  1  0
 38 70  1  0
 40 71  1  0
 41 72  1  0
 42 73  1  0
 43 74  1  0
M  END
$$$$
[H]c1c([H])c([H])c(-c2oc3c([H])c([H])c(C([H])(C(=NP(=O)(OC([H])([H])C([H])([H])[H])N4C([H])([H])C([H])([H])OC([H])([H])C4([H])[H])C([H])([H])[H])N([H])c4c([H])c([H])c5sc(=O)n([H])c5c4[H])c([H])c3c2[H])c([H])c1[H]
     RDKit          3D

 72 77  0  0  0  0  0  0  0  0999 V2000
   -1.9046   -2.5586   -2.5351 C   0  0  0  0  0  0  0  0  0  0  0  0
   -2.4384   -2.0461   -1.2087 C   0  0  0  0  0  0  0  0  0  0  0  0
   -3.0769   -0.8474   -1.4677 O   0  0  0  0  0  0  0  0  0  0  0  0
   -3.7340   -0.1389   -0.0814 P   0  0  0  0  0  0  0  0  0  0  0  0
   -4.4575    1.1284   -0.5872 O   0  0  0  0  0  0  0  0  0  0  0  0
   -2.6770    0.2606    1.1063 N   0  0  0  0  0  0  0  0  0  0  0  0
   -1.7663    0.7816    1.6305 C   0  0  0  0  0  0  0  0  0  0  0  0
   -1.5070    0.4607    3.1052 C   0  0  0  0  0  0  0  0  0  0  0  0
   -0.7895    1.7453    1.0641 C   0  0  0  0  0  0  0  0  0  0  0  0
   -0.9587    2.0590   -0.3103 N   0  0  0  0  0  0  0  0  0  0  0  0
   -0.1846    3.0718   -0.9371 C   0  0  0  0  0  0  0  0  0  0  0  0
   -0.1991    3.0307   -2.3357 C   0  0  0  0  0  0  0  0  0  0  0  0
    0.5244    4.0048   -2.9827 C   0  0  0  0  0  0  0  0  0  0  0  0
    1.2346    4.9817   -2.2626 C   0  0  0  0  0  0  0  0  0  0  0  0
    2.2193    6.3148   -2.6675 S   0  0  0  0  0  0  0  0  0  0  0  0
    2.5881    6.8411   -1.0898 C   0  0  0  0  0  0  0  0  0  0  0  0
    3.3134    7.8337   -0.7084 O   0  0  0  0  0  0  0  0  0  0  0  0
    1.9411    5.9730   -0.3181 N   0  0  0  0  0  0  0  0  0  0  0  0
    1.2423    5.0134   -0.8969 C   0  0  0  0  0  0  0  0  0  0  0  0
    0.4949    4.0074   -0.2382 C   0  0  0  0  0  0  0  0  0  0  0  0
    0.6008    1.1710    1.1887 C   0  0  0  0  0  0  0  0  0  0  0  0
    1.4131    1.4558    2.2616 C   0  0  0  0  0  0  0  0  0  0  0  0
    2.6873    0.9494    2.4076 C   0  0  0  0  0  0  0  0  0  0  0  0
    3.1774    0.1103    1.4249 C   0  0  0  0  0  0  0  0  0  0  0  0
    4.3401   -0.5220    1.2840 O   0  0  0  0  0  0  0  0  0  0  0  0
    4.3485   -1.2158    0.1718 C   0  0  0  0  0  0  0  0  0  0  0  0
    3.1342   -1.0351   -0.4543 C   0  0  0  0  0  0  0  0  0  0  0  0
    2.3677   -0.1797    0.3457 C   0  0  0  0  0  0  0  0  0  0  0  0
    1.0957    0.3338    0.2126 C   0  0  0  0  0  0  0  0  0  0  0  0
    5.4684   -2.0280   -0.2917 C   0  0  0  0  0  0  0  0  0  0  0  0
    6.6310   -2.1185    0.4405 C   0  0  0  0  0  0  0  0  0  0  0  0
    7.6935   -2.8824    0.0117 C   0  0  0  0  0  0  0  0  0  0  0  0
    7.6233   -3.5810   -1.1671 C   0  0  0  0  0  0  0  0  0  0  0  0
    6.4606   -3.5155   -1.9394 C   0  0  0  0  0  0  0  0  0  0  0  0
    5.4207   -2.7378   -1.4715 C   0  0  0  0  0  0  0  0  0  0  0  0
   -5.0320   -1.1141    0.5702 N   0  0  0  0  0  0  0  0  0  0  0  0
   -5.8025   -1.7822   -0.4072 C   0  0  0  0  0  0  0  0  0  0  0  0
   -6.4126   -3.0204    0.2117 C   0  0  0  0  0  0  0  0  0  0  0  0
   -6.8867   -2.8134    1.4802 O   0  0  0  0  0  0  0  0  0  0  0  0
   -5.9699   -2.3410    2.3826 C   0  0  0  0  0  0  0  0  0  0  0  0
   -4.6807   -1.8555    1.7189 C   0  0  0  0  0  0  0  0  0  0  0  0
   -2.5308   -2.1373   -3.3743 H   0  0  0  0  0  0  0  0  0  0  0  0
   -0.8779   -2.2087   -2.7387 H   0  0  0  0  0  0  0  0  0  0  0  0
   -1.9919   -3.6544   -2.6342 H   0  0  0  0  0  0  0  0  0  0  0  0
   -3.0800   -2.8250   -0.7972 H   0  0  0  0  0  0  0  0  0  0  0  0
   -1.5568   -1.9437   -0.5417 H   0  0  0  0  0  0  0  0  0  0  0  0
   -1.1421    1.3388    3.6356 H   0  0  0  0  0  0  0  0  0  0  0  0
   -0.7904   -0.3530    3.2055 H   0  0  0  0  0  0  0  0  0  0  0  0
   -2.4655    0.1622    3.5943 H   0  0  0  0  0  0  0  0  0  0  0  0
   -0.7848    2.6871    1.6767 H   0  0  0  0  0  0  0  0  0  0  0  0
   -1.6624    1.5380   -0.8712 H   0  0  0  0  0  0  0  0  0  0  0  0
   -0.7353    2.2930   -2.8903 H   0  0  0  0  0  0  0  0  0  0  0  0
    0.5795    4.0634   -4.0610 H   0  0  0  0  0  0  0  0  0  0  0  0
    2.0304    6.1110    0.7537 H   0  0  0  0  0  0  0  0  0  0  0  0
    0.4457    3.9791    0.8333 H   0  0  0  0  0  0  0  0  0  0  0  0
    1.0515    2.1123    3.0469 H   0  0  0  0  0  0  0  0  0  0  0  0
    3.3231    1.1790    3.2585 H   0  0  0  0  0  0  0  0  0  0  0  0
    2.8238   -1.4683   -1.3873 H   0  0  0  0  0  0  0  0  0  0  0  0
    0.4965    0.0827   -0.6448 H   0  0  0  0  0  0  0  0  0  0  0  0
    6.6850   -1.5634    1.3758 H   0  0  0  0  0  0  0  0  0  0  0  0
    8.5999   -2.9463    0.5934 H   0  0  0  0  0  0  0  0  0  0  0  0
    8.4267   -4.1919   -1.5452 H   0  0  0  0  0  0  0  0  0  0  0  0
    6.4191   -4.0712   -2.8663 H   0  0  0  0  0  0  0  0  0  0  0  0
    4.4958   -2.6626   -2.0487 H   0  0  0  0  0  0  0  0  0  0  0  0
   -6.6691   -1.1193   -0.6825 H   0  0  0  0  0  0  0  0  0  0  0  0
   -5.2939   -2.0533   -1.3285 H   0  0  0  0  0  0  0  0  0  0  0  0
   -7.2674   -3.3146   -0.4298 H   0  0  0  0  0  0  0  0  0  0  0  0
   -5.6486   -3.8254    0.1567 H   0  0  0  0  0  0  0  0  0  0  0  0
   -6.4176   -1.4121    2.8431 H   0  0  0  0  0  0  0  0  0  0  0  0
   -5.7669   -3.0162    3.2209 H   0  0  0  0  0  0  0  0  0  0  0  0
   -4.0689   -2.7558    1.5389 H   0  0  0  0  0  0  0  0  0  0  0  0
   -4.1693   -1.2185    2.4483 H   0  0  0  0  0  0  0  0  0  0  0  0
  1  2  1  0
  2  3  1  0
  3  4  1  0
  4  5  2  0
  4  6  1  0
  6  7  2  3
  7  8  1  0
  7  9  1  0
  9 10  1  0
 10 11  1  0
 11 12  2  0
 12 13  1  0
 13 14  2  0
 14 15  1  0
 15 16  1  0
 16 17  2  0
 16 18  1  0
 18 19  1  0
 19 20  2  0
  9 21  1  0
 21 22  2  0
 22 23  1  0
 23 24  2  0
 24 25  1  0
 25 26  1  0
 26 27  2  0
 27 28  1  0
 28 29  2  0
 26 30  1  0
 30 31  2  0
 31 32  1  0
 32 33  2  0
 33 34  1  0
 34 35  2  0
  4 36  1  0
 36 37  1  0
 37 38  1  0
 38 39  1  0
 39 40  1  0
 40 41  1  0
 20 11  1  0
 29 21  1  0
 35 30  1  0
 41 36  1  0
 19 14  1  0
 28 24  1  0
  1 42  1  0
  1 43  1  0
  1 44  1  0
  2 45  1  0
  2 46  1  0
  8 47  1  0
  8 48  1  0
  8 49  1  0
  9 50  1  0
 10 51  1  0
 12 52  1  0
 13 53  1  0
 18 54  1  0
 20 55  1  0
 22 56  1  0
 23 57  1  0
 27 58  1  0
 29 59  1  0
 31 60  1  0
 32 61  1  0
 33 62  1  0
 34 63  1  0
 35 64  1  0
 37 65  1  0
 37 66  1  0
 38 67  1  0
 38 68  1  0
 40 69  1  0
 40 70  1  0
 41 71  1  0
 41 72  1  0
M  END
$$$$
[H]c1nc([H])c(Cl)c(-c2c(-c3c([H])c([H])c(F)c([H])c3[H])c([H])nn2[H])c1Cl
     RDKit          3D

 28 30  0  0  0  0  0  0  0  0999 V2000
    4.4840    1.0552    1.8898 F   0  0  0  0  0  0  0  0  0  0  0  0
    3.4499    0.7069    1.0739 C   0  0  0  0  0  0  0  0  0  0  0  0
    2.6508   -0.3725    1.3634 C   0  0  0  0  0  0  0  0  0  0  0  0
    1.5987   -0.7278    0.5329 C   0  0  0  0  0  0  0  0  0  0  0  0
    1.3173   -0.0113   -0.6111 C   0  0  0  0  0  0  0  0  0  0  0  0
    2.1295    1.0676   -0.8850 C   0  0  0  0  0  0  0  0  0  0  0  0
    3.1801    1.4383   -0.0743 C   0  0  0  0  0  0  0  0  0  0  0  0
    0.1960   -0.4074   -1.4834 C   0  0  0  0  0  0  0  0  0  0  0  0
    0.3435   -0.7895   -2.8036 C   0  0  0  0  0  0  0  0  0  0  0  0
   -0.8759   -1.0716   -3.2524 N   0  0  0  0  0  0  0  0  0  0  0  0
   -1.7613   -0.8845   -2.2844 N   0  0  0  0  0  0  0  0  0  0  0  0
   -1.1237   -0.4726   -1.1767 C   0  0  0  0  0  0  0  0  0  0  0  0
   -1.7689   -0.1659    0.0845 C   0  0  0  0  0  0  0  0  0  0  0  0
   -2.1895   -1.1833    0.9339 C   0  0  0  0  0  0  0  0  0  0  0  0
   -1.9127   -2.8615    0.4413 Cl  0  0  0  0  0  0  0  0  0  0  0  0
   -2.8061   -0.9089    2.1313 C   0  0  0  0  0  0  0  0  0  0  0  0
   -2.9984    0.3715    2.4723 N   0  0  0  0  0  0  0  0  0  0  0  0
   -2.6192    1.4044    1.7030 C   0  0  0  0  0  0  0  0  0  0  0  0
   -1.9931    1.1289    0.4869 C   0  0  0  0  0  0  0  0  0  0  0  0
   -1.4944    2.4884   -0.5380 Cl  0  0  0  0  0  0  0  0  0  0  0  0
    2.8427   -0.9684    2.2656 H   0  0  0  0  0  0  0  0  0  0  0  0
    0.9717   -1.5769    0.7642 H   0  0  0  0  0  0  0  0  0  0  0  0
    1.9296    1.6440   -1.7751 H   0  0  0  0  0  0  0  0  0  0  0  0
    3.8268    2.2827   -0.2751 H   0  0  0  0  0  0  0  0  0  0  0  0
    1.3029   -0.8296   -3.3159 H   0  0  0  0  0  0  0  0  0  0  0  0
   -2.7810   -1.0486   -2.4240 H   0  0  0  0  0  0  0  0  0  0  0  0
   -3.1121   -1.7458    2.7525 H   0  0  0  0  0  0  0  0  0  0  0  0
   -2.7872    2.4381    2.0036 H   0  0  0  0  0  0  0  0  0  0  0  0
  1  2  1  0
  2  3  2  0
  3  4  1  0
  4  5  2  0
  5  6  1  0
  6  7  2  0
  5  8  1  0
  8  9  1  0
  9 10  2  0
 10 11  1  0
 11 12  1  0
 12 13  1  0
 13 14  2  0
 14 15  1  0
 14 16  1  0
 16 17  2  0
 17 18  1  0
 18 19  2  0
 19 20  1  0
  7  2  1  0
 12  8  2  0
 19 13  1  0
  3 21  1  0
  4 22  1  0
  6 23  1  0
  7 24  1  0
  9 25  1  0
 11 26  1  0
 16 27  1  0
 18 28  1  0
M  END
$$$$
[H]c1nc(N([H])C(=O)C([H])([H])c2c([H])c([H])c([H])c([H])c2[H])c([H])c(N([H])c2c([H])c([H])c3c(S(=O)(=O)N([H])[H])c([H])c([H])c([H])c3c2[H])c1[H]
     RDKit          3D

 51 54  0  0  0  0  0  0  0  0999 V2000
   -9.0208    0.2717    0.8085 N   0  0  0  0  0  0  0  0  0  0  0  0
   -7.4742    1.0083    0.9752 S   0  0  0  0  0  0  0  0  0  0  0  0
   -7.4897    2.2020    0.0512 O   0  0  0  0  0  0  0  0  0  0  0  0
   -7.2506    1.3969    2.4084 O   0  0  0  0  0  0  0  0  0  0  0  0
   -6.2543   -0.1418    0.5074 C   0  0  0  0  0  0  0  0  0  0  0  0
   -6.6272   -1.4161    0.0715 C   0  0  0  0  0  0  0  0  0  0  0  0
   -5.6637   -2.3507   -0.3036 C   0  0  0  0  0  0  0  0  0  0  0  0
   -4.3312   -2.0115   -0.2436 C   0  0  0  0  0  0  0  0  0  0  0  0
   -3.9360   -0.7532    0.1853 C   0  0  0  0  0  0  0  0  0  0  0  0
   -2.5743   -0.4374    0.2249 C   0  0  0  0  0  0  0  0  0  0  0  0
   -2.1749    0.8082    0.6343 C   0  0  0  0  0  0  0  0  0  0  0  0
   -0.8261    1.1732    0.7069 N   0  0  0  0  0  0  0  0  0  0  0  0
    0.2052    0.2287    0.7462 C   0  0  0  0  0  0  0  0  0  0  0  0
    0.1603   -0.9823    1.3747 C   0  0  0  0  0  0  0  0  0  0  0  0
    1.2313   -1.8596    1.3235 C   0  0  0  0  0  0  0  0  0  0  0  0
    2.2968   -1.4794    0.6403 N   0  0  0  0  0  0  0  0  0  0  0  0
    2.4249   -0.2747   -0.0236 C   0  0  0  0  0  0  0  0  0  0  0  0
    3.6323   -0.0565   -0.7495 N   0  0  0  0  0  0  0  0  0  0  0  0
    3.9362    1.0598   -1.5158 C   0  0  0  0  0  0  0  0  0  0  0  0
    3.1646    2.0669   -1.6420 O   0  0  0  0  0  0  0  0  0  0  0  0
    5.2369    1.1491   -2.2581 C   0  0  0  0  0  0  0  0  0  0  0  0
    6.3219    0.6097   -1.4142 C   0  0  0  0  0  0  0  0  0  0  0  0
    6.7345   -0.6825   -1.7535 C   0  0  0  0  0  0  0  0  0  0  0  0
    7.7026   -1.3235   -1.0573 C   0  0  0  0  0  0  0  0  0  0  0  0
    8.2989   -0.6891    0.0133 C   0  0  0  0  0  0  0  0  0  0  0  0
    7.8968    0.5821    0.3505 C   0  0  0  0  0  0  0  0  0  0  0  0
    6.9070    1.2429   -0.3549 C   0  0  0  0  0  0  0  0  0  0  0  0
    1.3652    0.5788    0.0377 C   0  0  0  0  0  0  0  0  0  0  0  0
   -3.1664    1.7268    1.0011 C   0  0  0  0  0  0  0  0  0  0  0  0
   -4.4873    1.3918    0.9557 C   0  0  0  0  0  0  0  0  0  0  0  0
   -4.9089    0.1493    0.5489 C   0  0  0  0  0  0  0  0  0  0  0  0
   -9.0445   -0.7104    1.1280 H   0  0  0  0  0  0  0  0  0  0  0  0
   -9.4315    0.3307   -0.1393 H   0  0  0  0  0  0  0  0  0  0  0  0
   -7.6859   -1.6635    0.0286 H   0  0  0  0  0  0  0  0  0  0  0  0
   -6.0226   -3.3129   -0.6325 H   0  0  0  0  0  0  0  0  0  0  0  0
   -3.6128   -2.7579   -0.5391 H   0  0  0  0  0  0  0  0  0  0  0  0
   -1.8988   -1.2063   -0.0919 H   0  0  0  0  0  0  0  0  0  0  0  0
   -0.6202    2.2161    0.7256 H   0  0  0  0  0  0  0  0  0  0  0  0
   -0.7186   -1.2810    1.9434 H   0  0  0  0  0  0  0  0  0  0  0  0
    1.1746   -2.8328    1.8404 H   0  0  0  0  0  0  0  0  0  0  0  0
    4.3424   -0.8600   -0.6919 H   0  0  0  0  0  0  0  0  0  0  0  0
    5.1348    0.6308   -3.2300 H   0  0  0  0  0  0  0  0  0  0  0  0
    5.4782    2.2171   -2.4888 H   0  0  0  0  0  0  0  0  0  0  0  0
    6.2744   -1.1976   -2.5968 H   0  0  0  0  0  0  0  0  0  0  0  0
    8.0260   -2.3186   -1.3099 H   0  0  0  0  0  0  0  0  0  0  0  0
    9.0793   -1.1705    0.5979 H   0  0  0  0  0  0  0  0  0  0  0  0
    8.3371    1.1142    1.1896 H   0  0  0  0  0  0  0  0  0  0  0  0
    6.5956    2.2430   -0.0835 H   0  0  0  0  0  0  0  0  0  0  0  0
    1.4050    1.5443   -0.4561 H   0  0  0  0  0  0  0  0  0  0  0  0
   -2.8594    2.7278    1.3216 H   0  0  0  0  0  0  0  0  0  0  0  0
   -5.2831    2.1053    1.2353 H   0  0  0  0  0  0  0  0  0  0  0  0
  1  2  1  0
  2  3  2  0
  2  4  2  0
  2  5  1  0
  5  6  2  0
  6  7  1  0
  7  8  2  0
  8  9  1  0
  9 10  2  0
 10 11  1  0
 11 12  1  0
 12 13  1  0
 13 14  2  0
 14 15  1  0
 15 16  2  0
 16 17  1  0
 17 18  1  0
 18 19  1  0
 19 20  2  0
 19 21  1  0
 21 22  1  0
 22 23  2  0
 23 24  1  0
 24 25  2  0
 25 26  1  0
 26 27  2  0
 17 28  2  0
 11 29  2  0
 29 30  1  0
 30 31  2  0
 31  5  1  0
 31  9  1  0
 28 13  1  0
 27 22  1  0
  1 32  1  0
  1 33  1  0
  6 34  1  0
  7 35  1  0
  8 36  1  0
 10 37  1  0
 12 38  1  0
 14 39  1  0
 15 40  1  0
 18 41  1  0
 21 42  1  0
 21 43  1  0
 23 44  1  0
 24 45  1  0
 25 46  1  0
 26 47  1  0
 27 48  1  0
 28 49  1  0
 29 50  1  0
 30 51  1  0
M  END
$$$$
[H]OC([H])(C([H])([H])N([H])C(=O)N([H])c1c(C([H])([H])[H])nc(C(=O)N([H])[S](=O)=O)c([H])c1[H])C([H])(C([H])([H])[H])C([H])([H])[H]
     RDKit          3D

 42 42  0  0  0  0  0  0  0  0999 V2000
    2.0295   -2.1410    1.3026 C   0  0  0  0  0  0  0  0  0  0  0  0
    2.6401   -0.9402    0.6752 C   0  0  0  0  0  0  0  0  0  0  0  0
    3.9636   -0.7707    0.7908 N   0  0  0  0  0  0  0  0  0  0  0  0
    4.6138    0.2751    0.2641 C   0  0  0  0  0  0  0  0  0  0  0  0
    3.8769    1.2003   -0.4184 C   0  0  0  0  0  0  0  0  0  0  0  0
    2.4863    1.0473   -0.5550 C   0  0  0  0  0  0  0  0  0  0  0  0
    1.8270   -0.0246   -0.0140 C   0  0  0  0  0  0  0  0  0  0  0  0
    0.4537   -0.2563   -0.1004 N   0  0  0  0  0  0  0  0  0  0  0  0
   -0.5514    0.4995   -0.7240 C   0  0  0  0  0  0  0  0  0  0  0  0
   -0.3202    1.5623   -1.3295 O   0  0  0  0  0  0  0  0  0  0  0  0
   -1.9264    0.0827   -0.6986 N   0  0  0  0  0  0  0  0  0  0  0  0
   -2.9106    0.8689   -1.3372 C   0  0  0  0  0  0  0  0  0  0  0  0
   -4.3129    0.4085   -1.2759 C   0  0  0  0  0  0  0  0  0  0  0  0
   -5.0561    1.3750   -2.0235 O   0  0  0  0  0  0  0  0  0  0  0  0
   -4.9746    0.3712    0.0515 C   0  0  0  0  0  0  0  0  0  0  0  0
   -4.3884   -0.4888    1.1010 C   0  0  0  0  0  0  0  0  0  0  0  0
   -6.4143   -0.0871   -0.1732 C   0  0  0  0  0  0  0  0  0  0  0  0
    6.0648    0.4052    0.4246 C   0  0  0  0  0  0  0  0  0  0  0  0
    6.6196    1.4156   -0.0965 O   0  0  0  0  0  0  0  0  0  0  0  0
    6.8426   -0.5301    1.1200 N   0  0  0  0  0  0  0  0  0  0  0  0
    8.3668   -0.3238    1.2465 S   0  0  0  0  0  5  0  0  0  0  0  0
    8.8968    0.6717    1.9869 O   0  0  0  0  0  0  0  0  0  0  0  0
    9.1833   -1.1336    0.5363 O   0  0  0  0  0  0  0  0  0  0  0  0
    2.7489   -2.7528    1.8418 H   0  0  0  0  0  0  0  0  0  0  0  0
    1.4864   -2.7095    0.5085 H   0  0  0  0  0  0  0  0  0  0  0  0
    1.2188   -1.7493    1.9847 H   0  0  0  0  0  0  0  0  0  0  0  0
    4.3435    2.0713   -0.8694 H   0  0  0  0  0  0  0  0  0  0  0  0
    1.9354    1.7964   -1.1001 H   0  0  0  0  0  0  0  0  0  0  0  0
    0.1035   -1.1530    0.3847 H   0  0  0  0  0  0  0  0  0  0  0  0
   -2.1476   -0.7866   -0.2164 H   0  0  0  0  0  0  0  0  0  0  0  0
   -2.8979    1.9433   -1.0543 H   0  0  0  0  0  0  0  0  0  0  0  0
   -2.6374    0.8858   -2.4372 H   0  0  0  0  0  0  0  0  0  0  0  0
   -4.4222   -0.5241   -1.8635 H   0  0  0  0  0  0  0  0  0  0  0  0
   -4.8163    2.2505   -1.6051 H   0  0  0  0  0  0  0  0  0  0  0  0
   -5.0697    1.4047    0.4775 H   0  0  0  0  0  0  0  0  0  0  0  0
   -3.5026   -0.0485    1.6215 H   0  0  0  0  0  0  0  0  0  0  0  0
   -4.1959   -1.5355    0.7817 H   0  0  0  0  0  0  0  0  0  0  0  0
   -5.1647   -0.5854    1.9169 H   0  0  0  0  0  0  0  0  0  0  0  0
   -6.8330   -0.5653    0.7436 H   0  0  0  0  0  0  0  0  0  0  0  0
   -6.4826   -0.8345   -0.9890 H   0  0  0  0  0  0  0  0  0  0  0  0
   -7.0852    0.7803   -0.3821 H   0  0  0  0  0  0  0  0  0  0  0  0
    6.4087   -1.3753    1.5609 H   0  0  0  0  0  0  0  0  0  0  0  0
  1  2  1  0
  2  3  2  0
  3  4  1  0
  4  5  2  0
  5  6  1  0
  6  7  2  0
  7  8  1  0
  8  9  1  0
  9 10  2  0
  9 11  1  0
 11 12  1  0
 12 13  1  0
 13 14  1  0
 13 15  1  0
 15 16  1  0
 15 17  1  0
  4 18  1  0
 18 19  2  0
 18 20  1  0
 20 21  1  0
 21 22  2  0
 21 23  2  0
  7  2  1  0
  1 24  1  0
  1 25  1  0
  1 26  1  0
  5 27  1  0
  6 28  1  0
  8 29  1  0
 11 30  1  0
 12 31  1  0
 12 32  1  0
 13 33  1  0
 14 34  1  0
 15 35  1  0
 16 36  1  0
 16 37  1  0
 16 38  1  0
 17 39  1  0
 17 40  1  0
 17 41  1  0
 20 42  1  0
M  RAD  1  21   2
M  END
$$$$
[H]c1c([H])c([H])c2c(c1[H])c(C(=O)N([H])[C@]([H])(C(C([H])([H])[H])(C([H])([H])[H])C([H])([H])[H])[C@@]([H])(C([H])([H])[H])C([H])([H])C([H])([H])[H])c([H])n2[H]
     RDKit          3D

 47 48  0  0  0  0  0  0  0  0999 V2000
   -2.6422    3.1457   -1.3458 C   0  0  0  0  0  0  0  0  0  0  0  0
   -1.8817    2.2719   -0.3921 C   0  0  0  0  0  0  0  0  0  0  0  0
   -2.4414    0.8419   -0.5044 C   0  0  2  0  0  0  0  0  0  0  0  0
   -3.8693    0.9214   -0.1457 C   0  0  0  0  0  0  0  0  0  0  0  0
   -1.5821   -0.0960    0.2437 C   0  0  2  0  0  0  0  0  0  0  0  0
   -0.2231   -0.0639   -0.3074 N   0  0  0  0  0  0  0  0  0  0  0  0
    0.8913    0.3846    0.3942 C   0  0  0  0  0  0  0  0  0  0  0  0
    0.7772    0.7955    1.5705 O   0  0  0  0  0  0  0  0  0  0  0  0
    2.2048    0.3858   -0.2199 C   0  0  0  0  0  0  0  0  0  0  0  0
    2.5358    0.6601   -1.5284 C   0  0  0  0  0  0  0  0  0  0  0  0
    3.8800    0.5536   -1.7033 N   0  0  0  0  0  0  0  0  0  0  0  0
    4.4335    0.2161   -0.5391 C   0  0  0  0  0  0  0  0  0  0  0  0
    5.7318   -0.0141   -0.1714 C   0  0  0  0  0  0  0  0  0  0  0  0
    6.0206   -0.3588    1.1459 C   0  0  0  0  0  0  0  0  0  0  0  0
    5.0246   -0.4709    2.0797 C   0  0  0  0  0  0  0  0  0  0  0  0
    3.7088   -0.2368    1.7041 C   0  0  0  0  0  0  0  0  0  0  0  0
    3.4313    0.1044    0.3961 C   0  0  0  0  0  0  0  0  0  0  0  0
   -1.9730   -1.5111    0.3292 C   0  0  0  0  0  0  0  0  0  0  0  0
   -0.8829   -2.2139    1.1622 C   0  0  0  0  0  0  0  0  0  0  0  0
   -3.2757   -1.8424    0.9607 C   0  0  0  0  0  0  0  0  0  0  0  0
   -1.8373   -2.1253   -1.0708 C   0  0  0  0  0  0  0  0  0  0  0  0
   -1.9309    3.9051   -1.7749 H   0  0  0  0  0  0  0  0  0  0  0  0
   -3.4512    3.7134   -0.8556 H   0  0  0  0  0  0  0  0  0  0  0  0
   -3.0603    2.5983   -2.2029 H   0  0  0  0  0  0  0  0  0  0  0  0
   -0.8275    2.1977   -0.7427 H   0  0  0  0  0  0  0  0  0  0  0  0
   -1.8825    2.6244    0.6364 H   0  0  0  0  0  0  0  0  0  0  0  0
   -2.3579    0.6110   -1.5886 H   0  0  0  0  0  0  0  0  0  0  0  0
   -4.5096    0.0992   -0.4675 H   0  0  0  0  0  0  0  0  0  0  0  0
   -4.0207    1.2025    0.9400 H   0  0  0  0  0  0  0  0  0  0  0  0
   -4.2849    1.8318   -0.6823 H   0  0  0  0  0  0  0  0  0  0  0  0
   -1.4727    0.3034    1.2876 H   0  0  0  0  0  0  0  0  0  0  0  0
   -0.1250   -0.4045   -1.2841 H   0  0  0  0  0  0  0  0  0  0  0  0
    1.7975    0.9212   -2.2853 H   0  0  0  0  0  0  0  0  0  0  0  0
    4.3824    0.7158   -2.6192 H   0  0  0  0  0  0  0  0  0  0  0  0
    6.5706    0.0541   -0.8477 H   0  0  0  0  0  0  0  0  0  0  0  0
    7.0498   -0.5345    1.4089 H   0  0  0  0  0  0  0  0  0  0  0  0
    5.2593   -0.7390    3.1001 H   0  0  0  0  0  0  0  0  0  0  0  0
    2.9469   -0.3337    2.4653 H   0  0  0  0  0  0  0  0  0  0  0  0
   -0.7359   -1.6966    2.1254 H   0  0  0  0  0  0  0  0  0  0  0  0
    0.0409   -2.3375    0.5976 H   0  0  0  0  0  0  0  0  0  0  0  0
   -1.2276   -3.2536    1.4291 H   0  0  0  0  0  0  0  0  0  0  0  0
   -3.1807   -2.7539    1.6286 H   0  0  0  0  0  0  0  0  0  0  0  0
   -3.5852   -1.0389    1.6547 H   0  0  0  0  0  0  0  0  0  0  0  0
   -4.0680   -2.1400    0.2429 H   0  0  0  0  0  0  0  0  0  0  0  0
   -2.0117   -1.3798   -1.8627 H   0  0  0  0  0  0  0  0  0  0  0  0
   -2.5303   -2.9870   -1.1252 H   0  0  0  0  0  0  0  0  0  0  0  0
   -0.8158   -2.5264   -1.2364 H   0  0  0  0  0  0  0  0  0  0  0  0
  1  2  1  0
  2  3  1  0
  3  4  1  0
  3  5  1  0
  5  6  1  0
  6  7  1  0
  7  8  2  0
  7  9  1  0
  9 10  2  0
 10 11  1  0
 11 12  1  0
 12 13  2  0
 13 14  1  0
 14 15  2  0
 15 16  1  0
 16 17  2  0
  5 18  1  0
 18 19  1  0
 18 20  1  0
 18 21  1  0
 17  9  1  0
 17 12  1  0
  1 22  1  0
  1 23  1  0
  1 24  1  0
  2 25  1  0
  2 26  1  0
  3 27  1  6
  4 28  1  0
  4 29  1  0
  4 30  1  0
  5 31  1  1
  6 32  1  0
 10 33  1  0
 11 34  1  0
 13 35  1  0
 14 36  1  0
 15 37  1  0
 16 38  1  0
 19 39  1  0
 19 40  1  0
 19 41  1  0
 20 42  1  0
 20 43  1  0
 20 44  1  0
 21 45  1  0
 21 46  1  0
 21 47  1  0
M  END
$$$$
[H]c1c([H])c([H])c(C([H])([H])N([H])C(=O)c2c([H])c([H])c(Cl)c3c2c2c(=O)n([H])c4c(C([H])([H])[H])c(C#N)n(C([H])([H])C(F)(F)F)c5c([H])c([H])c([H])c([H])c5c4c32)c([H])c1[H]
     RDKit          3D

 61 66  0  0  0  0  0  0  0  0999 V2000
   -5.7558    3.6005    0.7135 N   0  0  0  0  0  0  0  0  0  0  0  0
   -5.2208    2.6179    0.4363 C   0  0  0  0  0  0  0  0  0  0  0  0
   -4.5082    1.3969    0.0714 C   0  0  0  0  0  0  0  0  0  0  0  0
   -3.4120    1.6610   -0.7736 C   0  0  0  0  0  0  0  0  0  0  0  0
   -3.5345    2.6793   -1.8183 C   0  0  0  0  0  0  0  0  0  0  0  0
   -2.1548    1.0537   -0.6131 C   0  0  0  0  0  0  0  0  0  0  0  0
   -1.1552    1.8247   -1.0165 N   0  0  0  0  0  0  0  0  0  0  0  0
    0.1016    1.4942   -0.6893 C   0  0  0  0  0  0  0  0  0  0  0  0
    1.0550    2.2067   -1.0680 O   0  0  0  0  0  0  0  0  0  0  0  0
    0.3667    0.3501    0.0794 C   0  0  0  0  0  0  0  0  0  0  0  0
    1.2505   -0.4321    0.7850 C   0  0  0  0  0  0  0  0  0  0  0  0
    2.5517   -0.5841    1.1526 C   0  0  0  0  0  0  0  0  0  0  0  0
    2.8788   -1.6111    2.0269 C   0  0  0  0  0  0  0  0  0  0  0  0
    1.8819   -2.4256    2.4872 C   0  0  0  0  0  0  0  0  0  0  0  0
    0.5608   -2.2787    2.1243 C   0  0  0  0  0  0  0  0  0  0  0  0
   -0.6289   -3.2435    2.9574 Cl  0  0  0  0  0  0  0  0  0  0  0  0
    0.2182   -1.2640    1.2468 C   0  0  0  0  0  0  0  0  0  0  0  0
   -0.6485   -0.4850    0.5198 C   0  0  0  0  0  0  0  0  0  0  0  0
   -1.8938   -0.0905    0.1313 C   0  0  0  0  0  0  0  0  0  0  0  0
   -2.8419   -1.0778    0.3222 C   0  0  0  0  0  0  0  0  0  0  0  0
   -2.2931   -2.3201    0.1777 C   0  0  0  0  0  0  0  0  0  0  0  0
   -3.1315   -3.4158    0.3705 C   0  0  0  0  0  0  0  0  0  0  0  0
   -4.4513   -3.2580    0.6930 C   0  0  0  0  0  0  0  0  0  0  0  0
   -4.9887   -1.9929    0.8278 C   0  0  0  0  0  0  0  0  0  0  0  0
   -4.1993   -0.9080    0.6383 C   0  0  0  0  0  0  0  0  0  0  0  0
   -4.9807    0.2257    0.5709 N   0  0  0  0  0  0  0  0  0  0  0  0
   -6.3298    0.2120    0.9887 C   0  0  0  0  0  0  0  0  0  0  0  0
   -7.4084    0.0052   -0.0204 C   0  0  0  0  0  0  0  0  0  0  0  0
   -8.6769   -0.0342    0.5960 F   0  0  0  0  0  0  0  0  0  0  0  0
   -7.2438   -0.9302   -0.9923 F   0  0  0  0  0  0  0  0  0  0  0  0
   -7.6337    1.1817   -0.8173 F   0  0  0  0  0  0  0  0  0  0  0  0
    3.5629    0.3140    0.6354 C   0  0  0  0  0  0  0  0  0  0  0  0
    4.0509    1.2420    1.3573 O   0  0  0  0  0  0  0  0  0  0  0  0
    4.0482    0.2029   -0.6785 N   0  0  0  0  0  0  0  0  0  0  0  0
    5.0299    1.0816   -1.2539 C   0  0  0  0  0  0  0  0  0  0  0  0
    6.3581    0.8281   -0.6518 C   0  0  0  0  0  0  0  0  0  0  0  0
    7.0733   -0.3154   -0.9852 C   0  0  0  0  0  0  0  0  0  0  0  0
    8.3178   -0.5890   -0.4571 C   0  0  0  0  0  0  0  0  0  0  0  0
    8.9012    0.2887    0.4404 C   0  0  0  0  0  0  0  0  0  0  0  0
    8.2196    1.4192    0.7839 C   0  0  0  0  0  0  0  0  0  0  0  0
    6.9676    1.6960    0.2528 C   0  0  0  0  0  0  0  0  0  0  0  0
   -3.0570    2.4082   -2.7695 H   0  0  0  0  0  0  0  0  0  0  0  0
   -4.6095    2.7968   -2.0589 H   0  0  0  0  0  0  0  0  0  0  0  0
   -3.2378    3.6972   -1.4630 H   0  0  0  0  0  0  0  0  0  0  0  0
   -1.4110    2.6653   -1.5773 H   0  0  0  0  0  0  0  0  0  0  0  0
    3.9215   -1.7036    2.2924 H   0  0  0  0  0  0  0  0  0  0  0  0
    2.1508   -3.2102    3.1605 H   0  0  0  0  0  0  0  0  0  0  0  0
   -1.3009   -2.4671   -0.1285 H   0  0  0  0  0  0  0  0  0  0  0  0
   -2.6571   -4.3987    0.2416 H   0  0  0  0  0  0  0  0  0  0  0  0
   -5.1117   -4.0847    0.8493 H   0  0  0  0  0  0  0  0  0  0  0  0
   -6.0078   -1.8428    1.1332 H   0  0  0  0  0  0  0  0  0  0  0  0
   -6.5324    1.2958    1.3194 H   0  0  0  0  0  0  0  0  0  0  0  0
   -6.5352   -0.2188    2.0042 H   0  0  0  0  0  0  0  0  0  0  0  0
    3.6692   -0.5736   -1.2842 H   0  0  0  0  0  0  0  0  0  0  0  0
    5.1604    0.8902   -2.3528 H   0  0  0  0  0  0  0  0  0  0  0  0
    4.7463    2.1680   -1.2005 H   0  0  0  0  0  0  0  0  0  0  0  0
    6.6364   -1.0205   -1.6953 H   0  0  0  0  0  0  0  0  0  0  0  0
    8.8950   -1.4770   -0.7034 H   0  0  0  0  0  0  0  0  0  0  0  0
    9.8952    0.0492    0.8516 H   0  0  0  0  0  0  0  0  0  0  0  0
    8.6582    2.1067    1.4846 H   0  0  0  0  0  0  0  0  0  0  0  0
    6.4243    2.5939    0.5154 H   0  0  0  0  0  0  0  0  0  0  0  0
  1  2  3  0
  2  3  1  0
  3  4  2  0
  4  5  1  0
  4  6  1  0
  6  7  1  0
  7  8  1  0
  8  9  2  0
  8 10  1  0
 10 11  2  0
 11 12  1  0
 12 13  2  0
 13 14  1  0
 14 15  2  0
 15 16  1  0
 15 17  1  0
 17 18  2  0
 18 19  1  0
 19 20  1  0
 20 21  2  0
 21 22  1  0
 22 23  2  0
 23 24  1  0
 24 25  2  0
 25 26  1  0
 26 27  1  0
 27 28  1  0
 28 29  1  0
 28 30  1  0
 28 31  1  0
 12 32  1  0
 32 33  2  0
 32 34  1  0
 34 35  1  0
 35 36  1  0
 36 37  2  0
 37 38  1  0
 38 39  2  0
 39 40  1  0
 40 41  2  0
 26  3  1  0
 41 36  1  0
 19  6  2  0
 25 20  1  0
 18 10  1  0
 17 11  1  0
  5 42  1  0
  5 43  1  0
  5 44  1  0
  7 45  1  0
 13 46  1  0
 14 47  1  0
 21 48  1  0
 22 49  1  0
 23 50  1  0
 24 51  1  0
 27 52  1  0
 27 53  1  0
 34 54  1  0
 35 55  1  0
 35 56  1  0
 37 57  1  0
 38 58  1  0
 39 59  1  0
 40 60  1  0
 41 61  1  0
M  END
$$$$
[H]c1nc(N([H])c2nc([H])c(C#N)c(N([H])c3c([H])c([H])c(Cl)c(N(C([H])([H])[H])C([H])([H])[H])c3[H])n2)c([H])c(C(C(=O)N([H])c2c([H])c([H])c([H])c([H])c2[H])(C([H])([H])[H])C([H])([H])[H])c1[H]
     RDKit          3D

 65 68  0  0  0  0  0  0  0  0999 V2000
    6.9872    3.0196   -0.7438 C   0  0  0  0  0  0  0  0  0  0  0  0
    6.8358    1.8317    0.0841 N   0  0  0  0  0  0  0  0  0  0  0  0
    6.6035    1.9531    1.4997 C   0  0  0  0  0  0  0  0  0  0  0  0
    6.9098    0.5159   -0.4642 C   0  0  0  0  0  0  0  0  0  0  0  0
    5.8127   -0.3472   -0.3487 C   0  0  0  0  0  0  0  0  0  0  0  0
    5.8556   -1.6093   -0.8636 C   0  0  0  0  0  0  0  0  0  0  0  0
    4.7895   -2.5368   -0.8119 N   0  0  0  0  0  0  0  0  0  0  0  0
    3.4359   -2.2810   -0.5383 C   0  0  0  0  0  0  0  0  0  0  0  0
    2.9009   -1.0885   -0.3037 N   0  0  0  0  0  0  0  0  0  0  0  0
    1.5947   -0.8279   -0.0533 C   0  0  0  0  0  0  0  0  0  0  0  0
    1.1898    0.4980    0.1764 N   0  0  0  0  0  0  0  0  0  0  0  0
   -0.0867    0.9908    0.4498 C   0  0  0  0  0  0  0  0  0  0  0  0
   -1.2163    0.2343    0.5444 C   0  0  0  0  0  0  0  0  0  0  0  0
   -2.4922    0.7535    0.8218 C   0  0  0  0  0  0  0  0  0  0  0  0
   -2.5681    2.1128    1.0039 C   0  0  0  0  0  0  0  0  0  0  0  0
   -1.4240    2.8825    0.9082 C   0  0  0  0  0  0  0  0  0  0  0  0
   -0.2391    2.3511    0.6442 N   0  0  0  0  0  0  0  0  0  0  0  0
   -3.6786   -0.0500    0.9404 C   0  0  0  0  0  0  0  0  0  0  0  0
   -4.2053    0.0837    2.3766 C   0  0  0  0  0  0  0  0  0  0  0  0
   -3.5843   -1.4850    0.6095 C   0  0  0  0  0  0  0  0  0  0  0  0
   -4.7686    0.5595    0.0849 C   0  0  0  0  0  0  0  0  0  0  0  0
   -4.5037    1.5293   -0.6192 O   0  0  0  0  0  0  0  0  0  0  0  0
   -6.0370   -0.0636    0.1767 N   0  0  0  0  0  0  0  0  0  0  0  0
   -7.2238    0.2877   -0.5015 C   0  0  0  0  0  0  0  0  0  0  0  0
   -7.3295    1.3012   -1.4143 C   0  0  0  0  0  0  0  0  0  0  0  0
   -8.5122    1.6158   -2.0554 C   0  0  0  0  0  0  0  0  0  0  0  0
   -9.6444    0.8941   -1.7813 C   0  0  0  0  0  0  0  0  0  0  0  0
   -9.5620   -0.1272   -0.8690 C   0  0  0  0  0  0  0  0  0  0  0  0
   -8.3849   -0.4375   -0.2334 C   0  0  0  0  0  0  0  0  0  0  0  0
    0.7917   -1.8857   -0.0477 N   0  0  0  0  0  0  0  0  0  0  0  0
    1.2368   -3.1211   -0.2725 C   0  0  0  0  0  0  0  0  0  0  0  0
    2.5600   -3.3784   -0.5253 C   0  0  0  0  0  0  0  0  0  0  0  0
    3.0364   -4.7224   -0.7684 C   0  0  0  0  0  0  0  0  0  0  0  0
    3.3982   -5.8034   -0.9627 N   0  0  0  0  0  0  0  0  0  0  0  0
    7.0277   -1.9969   -1.5019 C   0  0  0  0  0  0  0  0  0  0  0  0
    8.0770   -1.1521   -1.6045 C   0  0  0  0  0  0  0  0  0  0  0  0
    8.0517    0.1300   -1.0897 C   0  0  0  0  0  0  0  0  0  0  0  0
    9.4564    1.1530   -1.2700 Cl  0  0  0  0  0  0  0  0  0  0  0  0
    6.7400    2.7791   -1.7875 H   0  0  0  0  0  0  0  0  0  0  0  0
    6.2684    3.7708   -0.3573 H   0  0  0  0  0  0  0  0  0  0  0  0
    8.0323    3.3671   -0.6912 H   0  0  0  0  0  0  0  0  0  0  0  0
    6.8820    1.0164    2.0250 H   0  0  0  0  0  0  0  0  0  0  0  0
    7.2154    2.7995    1.8900 H   0  0  0  0  0  0  0  0  0  0  0  0
    5.5333    2.1469    1.7320 H   0  0  0  0  0  0  0  0  0  0  0  0
    4.9617    0.0485    0.1746 H   0  0  0  0  0  0  0  0  0  0  0  0
    5.0517   -3.5424   -0.9976 H   0  0  0  0  0  0  0  0  0  0  0  0
    1.9633    1.2606    0.1403 H   0  0  0  0  0  0  0  0  0  0  0  0
   -1.2306   -0.8174    0.4150 H   0  0  0  0  0  0  0  0  0  0  0  0
   -3.4723    2.6456    1.2320 H   0  0  0  0  0  0  0  0  0  0  0  0
   -1.4804    3.9692    1.0526 H   0  0  0  0  0  0  0  0  0  0  0  0
   -3.3367   -0.0920    3.0297 H   0  0  0  0  0  0  0  0  0  0  0  0
   -5.0106   -0.6707    2.5240 H   0  0  0  0  0  0  0  0  0  0  0  0
   -4.6183    1.1042    2.4551 H   0  0  0  0  0  0  0  0  0  0  0  0
   -4.4731   -2.0391    0.9768 H   0  0  0  0  0  0  0  0  0  0  0  0
   -2.7323   -1.9298    1.2053 H   0  0  0  0  0  0  0  0  0  0  0  0
   -3.4332   -1.7478   -0.4291 H   0  0  0  0  0  0  0  0  0  0  0  0
   -6.1495   -0.9109    0.8330 H   0  0  0  0  0  0  0  0  0  0  0  0
   -6.4637    1.9251   -1.6888 H   0  0  0  0  0  0  0  0  0  0  0  0
   -8.5525    2.4424   -2.7854 H   0  0  0  0  0  0  0  0  0  0  0  0
  -10.5790    1.1252   -2.2727 H   0  0  0  0  0  0  0  0  0  0  0  0
  -10.4825   -0.6989   -0.6593 H   0  0  0  0  0  0  0  0  0  0  0  0
   -8.3906   -1.2705    0.4880 H   0  0  0  0  0  0  0  0  0  0  0  0
    0.5670   -3.9970   -0.2670 H   0  0  0  0  0  0  0  0  0  0  0  0
    7.1029   -2.9952   -1.9266 H   0  0  0  0  0  0  0  0  0  0  0  0
    8.9968   -1.4721   -2.1116 H   0  0  0  0  0  0  0  0  0  0  0  0
  1  2  1  0
  2  3  1  0
  2  4  1  0
  4  5  2  0
  5  6  1  0
  6  7  1  0
  7  8  1  0
  8  9  2  0
  9 10  1  0
 10 11  1  0
 11 12  1  0
 12 13  2  0
 13 14  1  0
 14 15  2  0
 15 16  1  0
 16 17  2  0
 14 18  1  0
 18 19  1  0
 18 20  1  0
 18 21  1  0
 21 22  2  0
 21 23  1  0
 23 24  1  0
 24 25  2  0
 25 26  1  0
 26 27  2  0
 27 28  1  0
 28 29  2  0
 10 30  2  0
 30 31  1  0
 31 32  2  0
 32 33  1  0
 33 34  3  0
  6 35  2  0
 35 36  1  0
 36 37  2  0
 37 38  1  0
 37  4  1  0
 32  8  1  0
 17 12  1  0
 29 24  1  0
  1 39  1  0
  1 40  1  0
  1 41  1  0
  3 42  1  0
  3 43  1  0
  3 44  1  0
  5 45  1  0
  7 46  1  0
 11 47  1  0
 13 48  1  0
 15 49  1  0
 16 50  1  0
 19 51  1  0
 19 52  1  0
 19 53  1  0
 20 54  1  0
 20 55  1  0
 20 56  1  0
 23 57  1  0
 25 58  1  0
 26 59  1  0
 27 60  1  0
 28 61  1  0
 29 62  1  0
 31 63  1  0
 35 64  1  0
 36 65  1  0
M  END
$$$$
[H]c1c(-c2c([H])c([H])c3c(c2[H])C([H])([H])C([H])([H])O3)nnc(C([H])(N(C(=O)C([H])([H])N2C([H])([H])C([H])([H])C([H])([H])C2([H])[H])C([H])(c2c([H])c([H])c(C(F)(F)F)c([H])c2[H])C([H])([H])[H])C([H])([H])C2([H])C([H])([H])C([H])([H])C([H])([H])C([H])([H])C2([H])[H])c1[H]
     RDKit          3D

 85 90  0  0  0  0  0  0  0  0999 V2000
   -4.1098   -0.3481   -0.7512 C   0  0  0  0  0  0  0  0  0  0  0  0
   -3.0861    0.6395   -0.2726 C   0  0  0  0  0  0  0  0  0  0  0  0
   -1.9191    0.0325    0.3347 N   0  0  0  0  0  0  0  0  0  0  0  0
   -1.6287    0.3073    1.6953 C   0  0  0  0  0  0  0  0  0  0  0  0
   -0.6179   -0.0753    2.3121 O   0  0  0  0  0  0  0  0  0  0  0  0
   -2.6077    1.1241    2.4916 C   0  0  0  0  0  0  0  0  0  0  0  0
   -2.1145    1.2909    3.8639 N   0  0  0  0  0  0  0  0  0  0  0  0
   -3.1832    1.8543    4.6566 C   0  0  0  0  0  0  0  0  0  0  0  0
   -2.7768    3.2027    5.1272 C   0  0  0  0  0  0  0  0  0  0  0  0
   -1.2480    3.1020    5.0660 C   0  0  0  0  0  0  0  0  0  0  0  0
   -1.0262    2.2247    3.8761 C   0  0  0  0  0  0  0  0  0  0  0  0
   -1.0998   -0.9336   -0.3660 C   0  0  0  0  0  0  0  0  0  0  0  0
   -1.4242   -2.2375    0.3157 C   0  0  0  0  0  0  0  0  0  0  0  0
   -0.7707   -3.4792   -0.1026 C   0  0  0  0  0  0  0  0  0  0  0  0
   -0.9262   -3.9383   -1.5004 C   0  0  0  0  0  0  0  0  0  0  0  0
   -1.8349   -5.1316   -1.6999 C   0  0  0  0  0  0  0  0  0  0  0  0
   -1.4187   -6.3375   -0.8854 C   0  0  0  0  0  0  0  0  0  0  0  0
   -0.8896   -5.9137    0.4719 C   0  0  0  0  0  0  0  0  0  0  0  0
   -1.4521   -4.5732    0.7862 C   0  0  0  0  0  0  0  0  0  0  0  0
    0.3306   -0.6173   -0.4427 C   0  0  0  0  0  0  0  0  0  0  0  0
    0.8565    0.6427   -0.2187 C   0  0  0  0  0  0  0  0  0  0  0  0
    2.2219    0.8268   -0.3344 C   0  0  0  0  0  0  0  0  0  0  0  0
    3.0936   -0.1828   -0.6657 C   0  0  0  0  0  0  0  0  0  0  0  0
    2.5224   -1.4096   -0.8804 N   0  0  0  0  0  0  0  0  0  0  0  0
    1.2384   -1.5923   -0.7717 N   0  0  0  0  0  0  0  0  0  0  0  0
    4.5310   -0.0264   -0.7842 C   0  0  0  0  0  0  0  0  0  0  0  0
    5.2495   -1.1336   -1.2139 C   0  0  0  0  0  0  0  0  0  0  0  0
    6.6171   -1.1110   -1.3189 C   0  0  0  0  0  0  0  0  0  0  0  0
    7.3306    0.0232   -0.9975 C   0  0  0  0  0  0  0  0  0  0  0  0
    8.7113    0.2952   -1.0156 O   0  0  0  0  0  0  0  0  0  0  0  0
    8.8630    1.6970   -1.0753 C   0  0  0  0  0  0  0  0  0  0  0  0
    7.6492    2.1798   -0.2920 C   0  0  0  0  0  0  0  0  0  0  0  0
    6.6321    1.1410   -0.5674 C   0  0  0  0  0  0  0  0  0  0  0  0
    5.2372    1.1029   -0.4657 C   0  0  0  0  0  0  0  0  0  0  0  0
   -2.7682    1.6278   -1.3395 C   0  0  0  0  0  0  0  0  0  0  0  0
   -2.2661    2.8848   -1.0763 C   0  0  0  0  0  0  0  0  0  0  0  0
   -1.9663    3.7949   -2.0745 C   0  0  0  0  0  0  0  0  0  0  0  0
   -2.1619    3.4764   -3.3994 C   0  0  0  0  0  0  0  0  0  0  0  0
   -2.6634    2.2244   -3.6849 C   0  0  0  0  0  0  0  0  0  0  0  0
   -2.9607    1.3191   -2.6809 C   0  0  0  0  0  0  0  0  0  0  0  0
   -1.8489    4.4569   -4.4983 C   0  0  0  0  0  0  0  0  0  0  0  0
   -0.8613    3.9992   -5.3382 F   0  0  0  0  0  0  0  0  0  0  0  0
   -1.5170    5.6556   -3.9418 F   0  0  0  0  0  0  0  0  0  0  0  0
   -2.9787    4.6444   -5.2918 F   0  0  0  0  0  0  0  0  0  0  0  0
   -4.7017   -0.8042    0.0739 H   0  0  0  0  0  0  0  0  0  0  0  0
   -3.7517   -1.0774   -1.4794 H   0  0  0  0  0  0  0  0  0  0  0  0
   -4.8808    0.2677   -1.3042 H   0  0  0  0  0  0  0  0  0  0  0  0
   -3.6127    1.2580    0.5230 H   0  0  0  0  0  0  0  0  0  0  0  0
   -2.6903    2.1524    2.0914 H   0  0  0  0  0  0  0  0  0  0  0  0
   -3.6022    0.6722    2.5635 H   0  0  0  0  0  0  0  0  0  0  0  0
   -3.3454    1.1538    5.5167 H   0  0  0  0  0  0  0  0  0  0  0  0
   -4.1326    1.9132    4.0830 H   0  0  0  0  0  0  0  0  0  0  0  0
   -3.1294    3.4642    6.1358 H   0  0  0  0  0  0  0  0  0  0  0  0
   -3.0390    3.9917    4.3698 H   0  0  0  0  0  0  0  0  0  0  0  0
   -0.8009    4.1163    4.9392 H   0  0  0  0  0  0  0  0  0  0  0  0
   -0.8587    2.6330    6.0050 H   0  0  0  0  0  0  0  0  0  0  0  0
   -1.1079    2.8709    2.9563 H   0  0  0  0  0  0  0  0  0  0  0  0
   -0.0412    1.7081    3.8857 H   0  0  0  0  0  0  0  0  0  0  0  0
   -1.4925   -0.9372   -1.4155 H   0  0  0  0  0  0  0  0  0  0  0  0
   -1.3043   -2.1122    1.4053 H   0  0  0  0  0  0  0  0  0  0  0  0
   -2.5358   -2.3939    0.1696 H   0  0  0  0  0  0  0  0  0  0  0  0
    0.2945   -3.5598    0.2646 H   0  0  0  0  0  0  0  0  0  0  0  0
    0.1085   -4.1926   -1.8856 H   0  0  0  0  0  0  0  0  0  0  0  0
   -1.3460   -3.1309   -2.1495 H   0  0  0  0  0  0  0  0  0  0  0  0
   -2.8823   -4.8849   -1.4616 H   0  0  0  0  0  0  0  0  0  0  0  0
   -1.7536   -5.4367   -2.7642 H   0  0  0  0  0  0  0  0  0  0  0  0
   -0.7188   -7.0061   -1.4250 H   0  0  0  0  0  0  0  0  0  0  0  0
   -2.3376   -6.9334   -0.6985 H   0  0  0  0  0  0  0  0  0  0  0  0
    0.2200   -5.9079    0.4070 H   0  0  0  0  0  0  0  0  0  0  0  0
   -1.1506   -6.6028    1.2824 H   0  0  0  0  0  0  0  0  0  0  0  0
   -1.3474   -4.2997    1.8424 H   0  0  0  0  0  0  0  0  0  0  0  0
   -2.5177   -4.5348    0.5130 H   0  0  0  0  0  0  0  0  0  0  0  0
    0.2184    1.4606    0.0460 H   0  0  0  0  0  0  0  0  0  0  0  0
    2.6224    1.8254   -0.1544 H   0  0  0  0  0  0  0  0  0  0  0  0
    4.7457   -2.0571   -1.4855 H   0  0  0  0  0  0  0  0  0  0  0  0
    7.1852   -1.9874   -1.6621 H   0  0  0  0  0  0  0  0  0  0  0  0
    8.7618    2.0819   -2.1210 H   0  0  0  0  0  0  0  0  0  0  0  0
    9.8085    2.0326   -0.6059 H   0  0  0  0  0  0  0  0  0  0  0  0
    7.9396    2.1846    0.7888 H   0  0  0  0  0  0  0  0  0  0  0  0
    7.3785    3.1753   -0.6692 H   0  0  0  0  0  0  0  0  0  0  0  0
    4.7169    1.9762   -0.1271 H   0  0  0  0  0  0  0  0  0  0  0  0
   -2.1159    3.1443   -0.0162 H   0  0  0  0  0  0  0  0  0  0  0  0
   -1.5795    4.7604   -1.8329 H   0  0  0  0  0  0  0  0  0  0  0  0
   -2.8213    1.9506   -4.7360 H   0  0  0  0  0  0  0  0  0  0  0  0
   -3.3601    0.3362   -2.9181 H   0  0  0  0  0  0  0  0  0  0  0  0
  1  2  1  0
  2  3  1  0
  3  4  1  0
  4  5  2  0
  4  6  1  0
  6  7  1  0
  7  8  1  0
  8  9  1  0
  9 10  1  0
 10 11  1  0
  3 12  1  0
 12 13  1  0
 13 14  1  0
 14 15  1  0
 15 16  1  0
 16 17  1  0
 17 18  1  0
 18 19  1  0
 12 20  1  0
 20 21  2  0
 21 22  1  0
 22 23  2  0
 23 24  1  0
 24 25  2  0
 23 26  1  0
 26 27  2  0
 27 28  1  0
 28 29  2  0
 29 30  1  0
 30 31  1  0
 31 32  1  0
 32 33  1  0
 33 34  2  0
  2 35  1  0
 35 36  2  0
 36 37  1  0
 37 38  2  0
 38 39  1  0
 39 40  2  0
 38 41  1  0
 41 42  1  0
 41 43  1  0
 41 44  1  0
 11  7  1  0
 19 14  1  0
 25 20  1  0
 34 26  1  0
 40 35  1  0
 33 29  1  0
  1 45  1  0
  1 46  1  0
  1 47  1  0
  2 48  1  0
  6 49  1  0
  6 50  1  0
  8 51  1  0
  8 52  1  0
  9 53  1  0
  9 54  1  0
 10 55  1  0
 10 56  1  0
 11 57  1  0
 11 58  1  0
 12 59  1  0
 13 60  1  0
 13 61  1  0
 14 62  1  0
 15 63  1  0
 15 64  1  0
 16 65  1  0
 16 66  1  0
 17 67  1  0
 17 68  1  0
 18 69  1  0
 18 70  1  0
 19 71  1  0
 19 72  1  0
 21 73  1  0
 22 74  1  0
 27 75  1  0
 28 76  1  0
 31 77  1  0
 31 78  1  0
 32 79  1  0
 32 80  1  0
 34 81  1  0
 36 82  1  0
 37 83  1  0
 39 84  1  0
 40 85  1  0
M  END
$$$$
[H]c1c([H])c([H])c(Oc2c([H])c([H])c(N([H])C(=O)C3(C#N)C([H])([H])C([H])([H])C([H])([H])C3([H])[H])c([H])c2[H])c([H])c1[H]
     RDKit          3D

 41 43  0  0  0  0  0  0  0  0999 V2000
   -3.7358   -3.2264    1.7819 N   0  0  0  0  0  0  0  0  0  0  0  0
   -3.7891   -2.1478    1.3854 C   0  0  0  0  0  0  0  0  0  0  0  0
   -3.8779   -0.7922    0.8901 C   0  0  0  0  0  0  0  0  0  0  0  0
   -4.7310    0.1150    1.7395 C   0  0  0  0  0  0  0  0  0  0  0  0
   -5.3226    1.1366    0.8086 C   0  0  0  0  0  0  0  0  0  0  0  0
   -5.0854    0.5979   -0.5805 C   0  0  0  0  0  0  0  0  0  0  0  0
   -4.6671   -0.8232   -0.4056 C   0  0  0  0  0  0  0  0  0  0  0  0
   -2.5361   -0.1672    0.6758 C   0  0  0  0  0  0  0  0  0  0  0  0
   -2.2947    0.8548    1.3400 O   0  0  0  0  0  0  0  0  0  0  0  0
   -1.6025   -0.7022   -0.2223 N   0  0  0  0  0  0  0  0  0  0  0  0
   -0.3160   -0.2652   -0.5526 C   0  0  0  0  0  0  0  0  0  0  0  0
    0.4403   -0.9697   -1.4967 C   0  0  0  0  0  0  0  0  0  0  0  0
    1.7091   -0.5702   -1.8467 C   0  0  0  0  0  0  0  0  0  0  0  0
    2.2868    0.5412   -1.2807 C   0  0  0  0  0  0  0  0  0  0  0  0
    3.5443    0.9556   -1.6132 O   0  0  0  0  0  0  0  0  0  0  0  0
    4.7022    0.5408   -0.9679 C   0  0  0  0  0  0  0  0  0  0  0  0
    4.6823   -0.3459    0.0888 C   0  0  0  0  0  0  0  0  0  0  0  0
    5.9012   -0.6870    0.6540 C   0  0  0  0  0  0  0  0  0  0  0  0
    7.0733   -0.1551    0.1702 C   0  0  0  0  0  0  0  0  0  0  0  0
    7.0927    0.7365   -0.8924 C   0  0  0  0  0  0  0  0  0  0  0  0
    5.8962    1.0747   -1.4513 C   0  0  0  0  0  0  0  0  0  0  0  0
    1.5635    1.2460   -0.3536 C   0  0  0  0  0  0  0  0  0  0  0  0
    0.2678    0.8323   -0.0007 C   0  0  0  0  0  0  0  0  0  0  0  0
   -4.0332    0.6815    2.4221 H   0  0  0  0  0  0  0  0  0  0  0  0
   -5.4675   -0.4348    2.3335 H   0  0  0  0  0  0  0  0  0  0  0  0
   -4.8971    2.1560    0.9511 H   0  0  0  0  0  0  0  0  0  0  0  0
   -6.4104    1.2114    1.0488 H   0  0  0  0  0  0  0  0  0  0  0  0
   -6.0430    0.6883   -1.1582 H   0  0  0  0  0  0  0  0  0  0  0  0
   -4.3446    1.2165   -1.1499 H   0  0  0  0  0  0  0  0  0  0  0  0
   -4.0896   -1.2408   -1.2450 H   0  0  0  0  0  0  0  0  0  0  0  0
   -5.5832   -1.4284   -0.1888 H   0  0  0  0  0  0  0  0  0  0  0  0
   -1.9597   -1.5959   -0.7270 H   0  0  0  0  0  0  0  0  0  0  0  0
   -0.0016   -1.8459   -1.9500 H   0  0  0  0  0  0  0  0  0  0  0  0
    2.2247   -1.1817   -2.5927 H   0  0  0  0  0  0  0  0  0  0  0  0
    3.7554   -0.7484    0.4498 H   0  0  0  0  0  0  0  0  0  0  0  0
    5.9307   -1.3828    1.4892 H   0  0  0  0  0  0  0  0  0  0  0  0
    8.0149   -0.4224    0.6115 H   0  0  0  0  0  0  0  0  0  0  0  0
    8.0005    1.1669   -1.2891 H   0  0  0  0  0  0  0  0  0  0  0  0
    5.8992    1.7774   -2.2904 H   0  0  0  0  0  0  0  0  0  0  0  0
    1.9947    2.1395    0.1187 H   0  0  0  0  0  0  0  0  0  0  0  0
   -0.1918    1.4644    0.7325 H   0  0  0  0  0  0  0  0  0  0  0  0
  1  2  3  0
  2  3  1  0
  3  4  1  0
  4  5  1  0
  5  6  1  0
  6  7  1  0
  3  8  1  0
  8  9  2  0
  8 10  1  0
 10 11  1  0
 11 12  2  0
 12 13  1  0
 13 14  2  0
 14 15  1  0
 15 16  1  0
 16 17  2  0
 17 18  1  0
 18 19  2  0
 19 20  1  0
 20 21  2  0
 14 22  1  0
 22 23  2  0
  7  3  1  0
 23 11  1  0
 21 16  1  0
  4 24  1  0
  4 25  1  0
  5 26  1  0
  5 27  1  0
  6 28  1  0
  6 29  1  0
  7 30  1  0
  7 31  1  0
 10 32  1  0
 12 33  1  0
 13 34  1  0
 17 35  1  0
 18 36  1  0
 19 37  1  0
 20 38  1  0
 21 39  1  0
 22 40  1  0
 23 41  1  0
M  END
$$$$
[H]c1nc([H])c(C2([H])C([H])([H])C([H])([H])N(C(=O)N([H])c3c([H])c([H])c([H])c(-c4nc([H])c([H])c(C#N)c4[H])c3[H])C([H])([H])C2([H])[H])c([H])c1[H]
     RDKit          3D

 50 53  0  0  0  0  0  0  0  0999 V2000
    0.6953   -0.2669    0.8279 O   0  0  0  0  0  0  0  0  0  0  0  0
    0.0505    0.3980   -0.0333 C   0  0  0  0  0  0  0  0  0  0  0  0
   -1.3199    0.6218    0.2983 N   0  0  0  0  0  0  0  0  0  0  0  0
   -1.9026    0.1057    1.5429 C   0  0  0  0  0  0  0  0  0  0  0  0
   -2.9685   -0.8838    1.1988 C   0  0  0  0  0  0  0  0  0  0  0  0
   -3.8526   -0.5451    0.0601 C   0  0  0  0  0  0  0  0  0  0  0  0
   -3.3186    0.3905   -0.9630 C   0  0  0  0  0  0  0  0  0  0  0  0
   -2.2688    1.3499   -0.5074 C   0  0  0  0  0  0  0  0  0  0  0  0
   -5.2159   -0.1041    0.4935 C   0  0  0  0  0  0  0  0  0  0  0  0
   -6.3194   -0.8013    0.0562 C   0  0  0  0  0  0  0  0  0  0  0  0
   -7.5886   -0.4244    0.4387 C   0  0  0  0  0  0  0  0  0  0  0  0
   -7.7379    0.6654    1.2689 C   0  0  0  0  0  0  0  0  0  0  0  0
   -6.6467    1.3298    1.6826 N   0  0  0  0  0  0  0  0  0  0  0  0
   -5.4043    0.9785    1.3215 C   0  0  0  0  0  0  0  0  0  0  0  0
    0.6446    0.8664   -1.2051 N   0  0  0  0  0  0  0  0  0  0  0  0
    1.9768    0.7250   -1.6572 C   0  0  0  0  0  0  0  0  0  0  0  0
    2.3161    1.1005   -2.9626 C   0  0  0  0  0  0  0  0  0  0  0  0
    3.5826    0.9980   -3.4518 C   0  0  0  0  0  0  0  0  0  0  0  0
    4.5710    0.5060   -2.6332 C   0  0  0  0  0  0  0  0  0  0  0  0
    4.3183    0.1141   -1.3338 C   0  0  0  0  0  0  0  0  0  0  0  0
    3.0129    0.2413   -0.8915 C   0  0  0  0  0  0  0  0  0  0  0  0
    5.4068   -0.3988   -0.5166 C   0  0  0  0  0  0  0  0  0  0  0  0
    5.2625   -0.8130    0.7788 C   0  0  0  0  0  0  0  0  0  0  0  0
    6.3231   -1.2979    1.5314 C   0  0  0  0  0  0  0  0  0  0  0  0
    7.5576   -1.3549    0.9303 C   0  0  0  0  0  0  0  0  0  0  0  0
    7.7120   -0.9343   -0.3900 C   0  0  0  0  0  0  0  0  0  0  0  0
    6.6340   -0.4790   -1.0458 N   0  0  0  0  0  0  0  0  0  0  0  0
    6.2042   -1.7383    2.8874 C   0  0  0  0  0  0  0  0  0  0  0  0
    6.0887   -2.0887    3.9799 N   0  0  0  0  0  0  0  0  0  0  0  0
   -2.2295    0.9695    2.1201 H   0  0  0  0  0  0  0  0  0  0  0  0
   -1.1211   -0.4189    2.1450 H   0  0  0  0  0  0  0  0  0  0  0  0
   -3.6190   -1.0674    2.0913 H   0  0  0  0  0  0  0  0  0  0  0  0
   -2.4495   -1.8587    1.0284 H   0  0  0  0  0  0  0  0  0  0  0  0
   -4.0323   -1.5175   -0.4976 H   0  0  0  0  0  0  0  0  0  0  0  0
   -2.9206   -0.1554   -1.8608 H   0  0  0  0  0  0  0  0  0  0  0  0
   -4.1713    0.9881   -1.3726 H   0  0  0  0  0  0  0  0  0  0  0  0
   -1.8562    1.8519   -1.3863 H   0  0  0  0  0  0  0  0  0  0  0  0
   -2.7551    2.0960    0.1685 H   0  0  0  0  0  0  0  0  0  0  0  0
   -6.2349   -1.6619   -0.5968 H   0  0  0  0  0  0  0  0  0  0  0  0
   -8.4242   -0.9959    0.0749 H   0  0  0  0  0  0  0  0  0  0  0  0
   -8.7419    0.9415    1.5548 H   0  0  0  0  0  0  0  0  0  0  0  0
   -4.5202    1.5020    1.6486 H   0  0  0  0  0  0  0  0  0  0  0  0
    0.0098    1.4189   -1.8695 H   0  0  0  0  0  0  0  0  0  0  0  0
    1.5258    1.4845   -3.5926 H   0  0  0  0  0  0  0  0  0  0  0  0
    3.8170    1.2953   -4.4641 H   0  0  0  0  0  0  0  0  0  0  0  0
    5.6053    0.4085   -2.9931 H   0  0  0  0  0  0  0  0  0  0  0  0
    2.8452   -0.0624    0.1215 H   0  0  0  0  0  0  0  0  0  0  0  0
    4.3147   -0.7754    1.2582 H   0  0  0  0  0  0  0  0  0  0  0  0
    8.4471   -1.7154    1.4269 H   0  0  0  0  0  0  0  0  0  0  0  0
    8.6976   -0.9877   -0.8474 H   0  0  0  0  0  0  0  0  0  0  0  0
  1  2  2  0
  2  3  1  0
  3  4  1  0
  4  5  1  0
  5  6  1  0
  6  7  1  0
  7  8  1  0
  6  9  1  0
  9 10  2  0
 10 11  1  0
 11 12  2  0
 12 13  1  0
 13 14  2  0
  2 15  1  0
 15 16  1  0
 16 17  2  0
 17 18  1  0
 18 19  2  0
 19 20  1  0
 20 21  2  0
 20 22  1  0
 22 23  2  0
 23 24  1  0
 24 25  2  0
 25 26  1  0
 26 27  2  0
 24 28  1  0
 28 29  3  0
  8  3  1  0
 14  9  1  0
 21 16  1  0
 27 22  1  0
  4 30  1  0
  4 31  1  0
  5 32  1  0
  5 33  1  0
  6 34  1  0
  7 35  1  0
  7 36  1  0
  8 37  1  0
  8 38  1  0
 10 39  1  0
 11 40  1  0
 12 41  1  0
 14 42  1  0
 15 43  1  0
 17 44  1  0
 18 45  1  0
 19 46  1  0
 21 47  1  0
 23 48  1  0
 25 49  1  0
 26 50  1  0
M  END
$$$$
[H]O[C@@]12C#Cc3c([H])c([H])c(C([H])([H])N4C([H])([H])C([H])([H])OC([H])([H])C4([H])[H])c([H])c3[C@]([H])(O[C@@]3([H])[C@@]([H])(OC([H])([H])[H])C([H])([H])[C@@]3([H])O[H])C1(C([H])([H])C([H])([H])C([H])([H])c1c([H])c([H])c([H])c([H])c1[H])C([H])([H])C2([H])[H]
     RDKit          3D

 77 82  0  0  0  0  0  0  0  0999 V2000
   -0.1627    6.1714   -1.3528 C   0  0  0  0  0  0  0  0  0  0  0  0
    0.8002    5.1781   -1.5305 O   0  0  0  0  0  0  0  0  0  0  0  0
    0.2647    4.0169   -2.0357 C   0  0  1  0  0  0  0  0  0  0  0  0
    1.0858    3.6171   -3.2694 C   0  0  0  0  0  0  0  0  0  0  0  0
    2.0162    2.9777   -2.2453 C   0  0  1  0  0  0  0  0  0  0  0  0
    2.9689    3.8365   -1.9003 O   0  0  0  0  0  0  0  0  0  0  0  0
    0.7849    2.7247   -1.4659 C   0  0  1  0  0  0  0  0  0  0  0  0
    0.7273    2.3973   -0.1991 O   0  0  0  0  0  0  0  0  0  0  0  0
    0.1496    1.2440    0.2740 C   0  0  2  0  0  0  0  0  0  0  0  0
   -1.0128    1.3694    1.1615 C   0  0  0  0  0  0  0  0  0  0  0  0
   -1.9214    0.2292    1.0019 C   0  0  0  0  0  0  0  0  0  0  0  0
   -3.1541    0.0109    1.7128 C   0  0  0  0  0  0  0  0  0  0  0  0
   -3.7719   -1.2931    1.0980 C   0  0  0  0  0  0  0  0  0  0  0  0
   -5.0390   -1.5953    1.7687 C   0  0  0  0  0  0  0  0  0  0  0  0
   -5.0383   -2.3946    2.8815 C   0  0  0  0  0  0  0  0  0  0  0  0
   -6.2394   -2.6648    3.4997 C   0  0  0  0  0  0  0  0  0  0  0  0
   -7.4424   -2.1647    3.0460 C   0  0  0  0  0  0  0  0  0  0  0  0
   -7.3900   -1.3664    1.9239 C   0  0  0  0  0  0  0  0  0  0  0  0
   -6.2159   -1.0821    1.2909 C   0  0  0  0  0  0  0  0  0  0  0  0
   -1.5874    2.7524    1.2323 C   0  0  0  0  0  0  0  0  0  0  0  0
   -0.5986    3.0834    2.3302 C   0  0  0  0  0  0  0  0  0  0  0  0
   -0.7887    1.6397    2.7307 C   0  0  1  0  0  0  0  0  0  0  0  0
   -1.9036    1.4843    3.4635 O   0  0  0  0  0  0  0  0  0  0  0  0
    0.3818    0.9726    2.9410 C   0  0  0  0  0  0  0  0  0  0  0  0
    1.1599    0.4629    2.6689 C   0  0  0  0  0  0  0  0  0  0  0  0
    1.9223   -0.1277    1.7282 C   0  0  0  0  0  0  0  0  0  0  0  0
    2.9175   -0.9172    1.7681 C   0  0  0  0  0  0  0  0  0  0  0  0
    3.4992   -1.4820    0.5981 C   0  0  0  0  0  0  0  0  0  0  0  0
    2.9344   -1.1357   -0.5963 C   0  0  0  0  0  0  0  0  0  0  0  0
    3.4776   -1.6772   -1.8663 C   0  0  0  0  0  0  0  0  0  0  0  0
    4.1530   -2.9189   -1.7194 N   0  0  0  0  0  0  0  0  0  0  0  0
    3.3161   -3.9930   -1.2625 C   0  0  0  0  0  0  0  0  0  0  0  0
    4.2625   -5.1402   -0.8858 C   0  0  0  0  0  0  0  0  0  0  0  0
    5.0969   -5.3577   -1.9540 O   0  0  0  0  0  0  0  0  0  0  0  0
    4.6861   -4.7972   -3.1414 C   0  0  0  0  0  0  0  0  0  0  0  0
    4.6917   -3.2849   -3.0274 C   0  0  0  0  0  0  0  0  0  0  0  0
    1.8422   -0.2702   -0.6659 C   0  0  0  0  0  0  0  0  0  0  0  0
    1.2718    0.2794    0.4082 C   0  0  0  0  0  0  0  0  0  0  0  0
    0.2902    7.0951   -0.9470 H   0  0  0  0  0  0  0  0  0  0  0  0
   -0.6771    6.3982   -2.3089 H   0  0  0  0  0  0  0  0  0  0  0  0
   -0.9611    5.8498   -0.6333 H   0  0  0  0  0  0  0  0  0  0  0  0
   -0.8320    4.0348   -2.2284 H   0  0  0  0  0  0  0  0  0  0  0  0
    1.5114    4.4861   -3.7978 H   0  0  0  0  0  0  0  0  0  0  0  0
    0.5684    2.8907   -3.9131 H   0  0  0  0  0  0  0  0  0  0  0  0
    2.4473    2.0654   -2.7134 H   0  0  0  0  0  0  0  0  0  0  0  0
    3.8455    3.5609   -1.6340 H   0  0  0  0  0  0  0  0  0  0  0  0
    0.2334    1.9174   -2.0348 H   0  0  0  0  0  0  0  0  0  0  0  0
   -0.2604    0.8009   -0.7320 H   0  0  0  0  0  0  0  0  0  0  0  0
   -1.2760   -0.7116    1.1422 H   0  0  0  0  0  0  0  0  0  0  0  0
   -2.1572    0.1258   -0.1196 H   0  0  0  0  0  0  0  0  0  0  0  0
   -2.9684   -0.3530    2.7743 H   0  0  0  0  0  0  0  0  0  0  0  0
   -3.9626    0.7209    1.6977 H   0  0  0  0  0  0  0  0  0  0  0  0
   -3.0188   -2.1055    1.1493 H   0  0  0  0  0  0  0  0  0  0  0  0
   -3.9589   -1.0971    0.0229 H   0  0  0  0  0  0  0  0  0  0  0  0
   -4.0939   -2.8172    3.2804 H   0  0  0  0  0  0  0  0  0  0  0  0
   -6.2360   -3.2965    4.3776 H   0  0  0  0  0  0  0  0  0  0  0  0
   -8.3951   -2.3853    3.5450 H   0  0  0  0  0  0  0  0  0  0  0  0
   -8.2995   -0.9273    1.4961 H   0  0  0  0  0  0  0  0  0  0  0  0
   -6.2260   -0.4368    0.3933 H   0  0  0  0  0  0  0  0  0  0  0  0
   -2.5988    2.8327    1.6643 H   0  0  0  0  0  0  0  0  0  0  0  0
   -1.4889    3.3733    0.3478 H   0  0  0  0  0  0  0  0  0  0  0  0
   -0.9549    3.8251    3.0722 H   0  0  0  0  0  0  0  0  0  0  0  0
    0.3539    3.4067    1.9390 H   0  0  0  0  0  0  0  0  0  0  0  0
   -1.7933    1.0327    4.3347 H   0  0  0  0  0  0  0  0  0  0  0  0
    3.3831   -1.2094    2.7370 H   0  0  0  0  0  0  0  0  0  0  0  0
    4.3265   -2.1366    0.6496 H   0  0  0  0  0  0  0  0  0  0  0  0
    2.5773   -1.8504   -2.5223 H   0  0  0  0  0  0  0  0  0  0  0  0
    4.1012   -0.9228   -2.4016 H   0  0  0  0  0  0  0  0  0  0  0  0
    2.6951   -3.7784   -0.3890 H   0  0  0  0  0  0  0  0  0  0  0  0
    2.6015   -4.3367   -2.0565 H   0  0  0  0  0  0  0  0  0  0  0  0
    3.6716   -6.0324   -0.5949 H   0  0  0  0  0  0  0  0  0  0  0  0
    4.8706   -4.7427   -0.0207 H   0  0  0  0  0  0  0  0  0  0  0  0
    3.7331   -5.1901   -3.5111 H   0  0  0  0  0  0  0  0  0  0  0  0
    5.4412   -5.0285   -3.9378 H   0  0  0  0  0  0  0  0  0  0  0  0
    4.1454   -2.8232   -3.8514 H   0  0  0  0  0  0  0  0  0  0  0  0
    5.7513   -2.9543   -3.0265 H   0  0  0  0  0  0  0  0  0  0  0  0
    1.4668   -0.0652   -1.6592 H   0  0  0  0  0  0  0  0  0  0  0  0
  1  2  1  0
  2  3  1  0
  3  4  1  0
  4  5  1  0
  5  6  1  0
  5  7  1  0
  7  8  1  0
  8  9  1  0
  9 10  1  0
 10 11  1  0
 11 12  1  0
 12 13  1  0
 13 14  1  0
 14 15  2  0
 15 16  1  0
 16 17  2  0
 17 18  1  0
 18 19  2  0
 10 20  1  0
 20 21  1  0
 21 22  1  0
 22 23  1  1
 22 24  1  0
 24 25  3  0
 25 26  1  0
 26 27  2  0
 27 28  1  0
 28 29  2  0
 29 30  1  0
 30 31  1  0
 31 32  1  0
 32 33  1  0
 33 34  1  0
 34 35  1  0
 35 36  1  0
 29 37  1  0
 37 38  2  0
  7  3  1  0
 38  9  1  0
 22 10  1  0
 38 26  1  0
 19 14  1  0
 36 31  1  0
  1 39  1  0
  1 40  1  0
  1 41  1  0
  3 42  1  6
  4 43  1  0
  4 44  1  0
  5 45  1  6
  6 46  1  0
  7 47  1  6
  9 48  1  6
 11 49  1  0
 11 50  1  0
 12 51  1  0
 12 52  1  0
 13 53  1  0
 13 54  1  0
 15 55  1  0
 16 56  1  0
 17 57  1  0
 18 58  1  0
 19 59  1  0
 20 60  1  0
 20 61  1  0
 21 62  1  0
 21 63  1  0
 23 64  1  0
 27 65  1  0
 28 66  1  0
 30 67  1  0
 30 68  1  0
 32 69  1  0
 32 70  1  0
 33 71  1  0
 33 72  1  0
 35 73  1  0
 35 74  1  0
 36 75  1  0
 36 76  1  0
 37 77  1  0
M  END
$$$$
[H]O[C@]1([H])[C@]([H])(O[H])C([H])([H])[C@@]2([H])O[C@]([H])(N2c2c([H])nc([H])c([H])c2[H])C([H])([H])[C@@]1([H])C([H])([H])c1c([H])c([H])c([H])c([H])c1[H]
     RDKit          3D

 46 49  0  0  0  0  0  0  0  0999 V2000
    0.7864   -2.5759   -2.6918 O   0  0  0  0  0  0  0  0  0  0  0  0
    0.1805   -2.1473   -1.4823 C   0  0  2  0  0  0  0  0  0  0  0  0
   -1.1868   -1.6580   -1.8395 C   0  0  0  0  0  0  0  0  0  0  0  0
   -2.1761   -1.9858   -0.7696 C   0  0  1  0  0  0  0  0  0  0  0  0
   -1.6121   -2.9539    0.0582 O   0  0  0  0  0  0  0  0  0  0  0  0
   -1.5159   -1.9548    1.0563 C   0  0  1  0  0  0  0  0  0  0  0  0
   -0.0883   -1.7117    1.3239 C   0  0  0  0  0  0  0  0  0  0  0  0
    0.6125   -0.6879    0.5139 C   0  0  1  0  0  0  0  0  0  0  0  0
    1.7641   -0.1877    1.3627 C   0  0  0  0  0  0  0  0  0  0  0  0
    2.5942    0.8378    0.7545 C   0  0  0  0  0  0  0  0  0  0  0  0
    2.2842    2.1706    0.8669 C   0  0  0  0  0  0  0  0  0  0  0  0
    3.0827    3.1623    0.2939 C   0  0  0  0  0  0  0  0  0  0  0  0
    4.2122    2.8095   -0.4043 C   0  0  0  0  0  0  0  0  0  0  0  0
    4.5331    1.4823   -0.5239 C   0  0  0  0  0  0  0  0  0  0  0  0
    3.7274    0.5061    0.0528 C   0  0  0  0  0  0  0  0  0  0  0  0
    1.0529   -1.0790   -0.8339 C   0  0  2  0  0  0  0  0  0  0  0  0
    1.2336    0.0047   -1.7056 O   0  0  0  0  0  0  0  0  0  0  0  0
   -2.2864   -1.0451    0.3200 N   0  0  0  0  0  0  0  0  0  0  0  0
   -2.9099    0.2044    0.4835 C   0  0  0  0  0  0  0  0  0  0  0  0
   -2.8859    0.9220    1.6592 C   0  0  0  0  0  0  0  0  0  0  0  0
   -3.5155    2.1548    1.7796 C   0  0  0  0  0  0  0  0  0  0  0  0
   -4.1758    2.6558    0.6830 C   0  0  0  0  0  0  0  0  0  0  0  0
   -4.2065    1.9669   -0.4676 N   0  0  0  0  0  0  0  0  0  0  0  0
   -3.5932    0.7777   -0.5666 C   0  0  0  0  0  0  0  0  0  0  0  0
    0.6364   -3.5422   -2.8411 H   0  0  0  0  0  0  0  0  0  0  0  0
    0.1611   -3.0434   -0.8596 H   0  0  0  0  0  0  0  0  0  0  0  0
   -1.5246   -2.1999   -2.7683 H   0  0  0  0  0  0  0  0  0  0  0  0
   -1.1830   -0.5773   -2.0913 H   0  0  0  0  0  0  0  0  0  0  0  0
   -3.1471   -2.3536   -1.1673 H   0  0  0  0  0  0  0  0  0  0  0  0
   -2.0522   -2.3396    1.9534 H   0  0  0  0  0  0  0  0  0  0  0  0
    0.0120   -1.4315    2.3942 H   0  0  0  0  0  0  0  0  0  0  0  0
    0.4613   -2.6807    1.2128 H   0  0  0  0  0  0  0  0  0  0  0  0
   -0.0786    0.2056    0.4376 H   0  0  0  0  0  0  0  0  0  0  0  0
    2.3491   -1.1219    1.6213 H   0  0  0  0  0  0  0  0  0  0  0  0
    1.3468    0.1205    2.3657 H   0  0  0  0  0  0  0  0  0  0  0  0
    1.3999    2.5011    1.4101 H   0  0  0  0  0  0  0  0  0  0  0  0
    2.8533    4.2154    0.3729 H   0  0  0  0  0  0  0  0  0  0  0  0
    4.8381    3.5994   -0.8543 H   0  0  0  0  0  0  0  0  0  0  0  0
    5.4227    1.2351   -1.0758 H   0  0  0  0  0  0  0  0  0  0  0  0
    4.0733   -0.5177   -0.0969 H   0  0  0  0  0  0  0  0  0  0  0  0
    2.0548   -1.5560   -0.7791 H   0  0  0  0  0  0  0  0  0  0  0  0
    0.6417    0.7310   -1.4183 H   0  0  0  0  0  0  0  0  0  0  0  0
   -2.3634    0.5118    2.5057 H   0  0  0  0  0  0  0  0  0  0  0  0
   -3.5074    2.7231    2.6799 H   0  0  0  0  0  0  0  0  0  0  0  0
   -4.6816    3.6334    0.7600 H   0  0  0  0  0  0  0  0  0  0  0  0
   -3.6240    0.2195   -1.5155 H   0  0  0  0  0  0  0  0  0  0  0  0
  1  2  1  0
  2  3  1  0
  3  4  1  0
  4  5  1  0
  5  6  1  0
  6  7  1  0
  7  8  1  0
  8  9  1  0
  9 10  1  0
 10 11  2  0
 11 12  1  0
 12 13  2  0
 13 14  1  0
 14 15  2  0
  8 16  1  0
 16 17  1  0
  6 18  1  0
 18 19  1  0
 19 20  2  0
 20 21  1  0
 21 22  2  0
 22 23  1  0
 23 24  2  0
 16  2  1  0
 24 19  1  0
 18  4  1  0
 15 10  1  0
  1 25  1  0
  2 26  1  1
  3 27  1  0
  3 28  1  0
  4 29  1  6
  6 30  1  1
  7 31  1  0
  7 32  1  0
  8 33  1  6
  9 34  1  0
  9 35  1  0
 11 36  1  0
 12 37  1  0
 13 38  1  0
 14 39  1  0
 15 40  1  0
 16 41  1  1
 17 42  1  0
 20 43  1  0
 21 44  1  0
 22 45  1  0
 24 46  1  0
M  END
$$$$
[H]c1nc([H])c(C(=O)N2C([H])([H])C([H])([H])N(C#Cc3c([H])c([H])c([H])c([H])c3[H])C([H])([H])C2([H])[H])c([H])c1C#CC([H])([H])c1c(-c2c([H])c([H])c(F)c([H])c2[H])c([H])nn1C([H])([H])C([H])([H])[H]
     RDKit          3D

 67 71  0  0  0  0  0  0  0  0999 V2000
   -7.5321    3.8562    1.0248 C   0  0  0  0  0  0  0  0  0  0  0  0
   -6.4740    3.2853    0.1045 C   0  0  0  0  0  0  0  0  0  0  0  0
   -6.7999    1.9302   -0.2501 N   0  0  0  0  0  0  0  0  0  0  0  0
   -7.5346    1.6034   -1.3114 N   0  0  0  0  0  0  0  0  0  0  0  0
   -7.6691    0.2744   -1.3837 C   0  0  0  0  0  0  0  0  0  0  0  0
   -6.9640   -0.2351   -0.2858 C   0  0  0  0  0  0  0  0  0  0  0  0
   -6.4313    0.8224    0.4042 C   0  0  0  0  0  0  0  0  0  0  0  0
   -5.6077    0.7642    1.6126 C   0  0  0  0  0  0  0  0  0  0  0  0
   -4.2557    0.3371    1.1686 C   0  0  0  0  0  0  0  0  0  0  0  0
   -3.1574    0.0077    0.7940 C   0  0  0  0  0  0  0  0  0  0  0  0
   -1.8512   -0.3663    0.3275 C   0  0  0  0  0  0  0  0  0  0  0  0
   -1.5996   -1.5797   -0.2767 C   0  0  0  0  0  0  0  0  0  0  0  0
   -0.3815   -1.9044   -0.7047 N   0  0  0  0  0  0  0  0  0  0  0  0
    0.6884   -1.0614   -0.5729 C   0  0  0  0  0  0  0  0  0  0  0  0
    0.5276    0.1490    0.0080 C   0  0  0  0  0  0  0  0  0  0  0  0
   -0.7632    0.4694    0.4516 C   0  0  0  0  0  0  0  0  0  0  0  0
    1.5824    1.1124    0.1511 C   0  0  0  0  0  0  0  0  0  0  0  0
    1.1944    2.1519    0.8966 O   0  0  0  0  0  0  0  0  0  0  0  0
    2.8894    1.1758   -0.3213 N   0  0  0  0  0  0  0  0  0  0  0  0
    3.6910    2.3657    0.0877 C   0  0  0  0  0  0  0  0  0  0  0  0
    5.1107    1.9656    0.3999 C   0  0  0  0  0  0  0  0  0  0  0  0
    5.6571    1.0837   -0.6065 N   0  0  0  0  0  0  0  0  0  0  0  0
    4.8313    0.7844   -1.7491 C   0  0  0  0  0  0  0  0  0  0  0  0
    3.5115    0.2234   -1.1865 C   0  0  0  0  0  0  0  0  0  0  0  0
    6.9361    0.5285   -0.5014 C   0  0  0  0  0  0  0  0  0  0  0  0
    8.0443    0.0465   -0.4330 C   0  0  0  0  0  0  0  0  0  0  0  0
    9.3669   -0.5331   -0.3775 C   0  0  0  0  0  0  0  0  0  0  0  0
    9.5532   -1.8464    0.0080 C   0  0  0  0  0  0  0  0  0  0  0  0
   10.8058   -2.4293    0.0694 C   0  0  0  0  0  0  0  0  0  0  0  0
   11.9268   -1.6861   -0.2637 C   0  0  0  0  0  0  0  0  0  0  0  0
   11.7419   -0.3733   -0.6491 C   0  0  0  0  0  0  0  0  0  0  0  0
   10.4924    0.2141   -0.7122 C   0  0  0  0  0  0  0  0  0  0  0  0
   -6.8986   -1.6677   -0.0302 C   0  0  0  0  0  0  0  0  0  0  0  0
   -7.1939   -2.2076    1.1996 C   0  0  0  0  0  0  0  0  0  0  0  0
   -7.0909   -3.5861    1.3414 C   0  0  0  0  0  0  0  0  0  0  0  0
   -6.7124   -4.4343    0.3249 C   0  0  0  0  0  0  0  0  0  0  0  0
   -6.6308   -5.7775    0.5294 F   0  0  0  0  0  0  0  0  0  0  0  0
   -6.4193   -3.8700   -0.9073 C   0  0  0  0  0  0  0  0  0  0  0  0
   -6.5140   -2.5048   -1.0729 C   0  0  0  0  0  0  0  0  0  0  0  0
   -7.1302    4.8120    1.4174 H   0  0  0  0  0  0  0  0  0  0  0  0
   -7.7441    3.1954    1.8891 H   0  0  0  0  0  0  0  0  0  0  0  0
   -8.4699    4.0688    0.4926 H   0  0  0  0  0  0  0  0  0  0  0  0
   -6.4102    3.9383   -0.7733 H   0  0  0  0  0  0  0  0  0  0  0  0
   -5.5227    3.2682    0.6825 H   0  0  0  0  0  0  0  0  0  0  0  0
   -8.2140   -0.2690   -2.1423 H   0  0  0  0  0  0  0  0  0  0  0  0
   -5.9307    0.0992    2.4047 H   0  0  0  0  0  0  0  0  0  0  0  0
   -5.5310    1.7882    2.0890 H   0  0  0  0  0  0  0  0  0  0  0  0
   -2.4544   -2.2533   -0.3822 H   0  0  0  0  0  0  0  0  0  0  0  0
    1.6538   -1.4431   -0.9450 H   0  0  0  0  0  0  0  0  0  0  0  0
   -0.9709    1.4331    0.9322 H   0  0  0  0  0  0  0  0  0  0  0  0
    3.2238    2.7333    1.0204 H   0  0  0  0  0  0  0  0  0  0  0  0
    3.6582    3.1010   -0.7377 H   0  0  0  0  0  0  0  0  0  0  0  0
    5.0949    1.4060    1.3579 H   0  0  0  0  0  0  0  0  0  0  0  0
    5.7484    2.8447    0.5168 H   0  0  0  0  0  0  0  0  0  0  0  0
    4.6658    1.6363   -2.4076 H   0  0  0  0  0  0  0  0  0  0  0  0
    5.2675   -0.0389   -2.3502 H   0  0  0  0  0  0  0  0  0  0  0  0
    2.9068    0.0468   -2.1159 H   0  0  0  0  0  0  0  0  0  0  0  0
    3.8019   -0.6895   -0.6491 H   0  0  0  0  0  0  0  0  0  0  0  0
    8.6779   -2.4315    0.2697 H   0  0  0  0  0  0  0  0  0  0  0  0
   10.9566   -3.4541    0.3695 H   0  0  0  0  0  0  0  0  0  0  0  0
   12.9329   -2.1277   -0.2226 H   0  0  0  0  0  0  0  0  0  0  0  0
   12.6125    0.2122   -0.9105 H   0  0  0  0  0  0  0  0  0  0  0  0
   10.3438    1.2448   -1.0146 H   0  0  0  0  0  0  0  0  0  0  0  0
   -7.5055   -1.6061    2.0441 H   0  0  0  0  0  0  0  0  0  0  0  0
   -7.3320   -3.9907    2.3336 H   0  0  0  0  0  0  0  0  0  0  0  0
   -6.1200   -4.5233   -1.7174 H   0  0  0  0  0  0  0  0  0  0  0  0
   -6.2789   -2.0889   -2.0472 H   0  0  0  0  0  0  0  0  0  0  0  0
  1  2  1  0
  2  3  1  0
  3  4  1  0
  4  5  2  0
  5  6  1  0
  6  7  2  0
  7  8  1  0
  8  9  1  0
  9 10  3  0
 10 11  1  0
 11 12  2  0
 12 13  1  0
 13 14  2  0
 14 15  1  0
 15 16  2  0
 15 17  1  0
 17 18  2  0
 17 19  1  0
 19 20  1  0
 20 21  1  0
 21 22  1  0
 22 23  1  0
 23 24  1  0
 22 25  1  0
 25 26  3  0
 26 27  1  0
 27 28  2  0
 28 29  1  0
 29 30  2  0
 30 31  1  0
 31 32  2  0
  6 33  1  0
 33 34  2  0
 34 35  1  0
 35 36  2  0
 36 37  1  0
 36 38  1  0
 38 39  2  0
  7  3  1  0
 16 11  1  0
 24 19  1  0
 32 27  1  0
 39 33  1  0
  1 40  1  0
  1 41  1  0
  1 42  1  0
  2 43  1  0
  2 44  1  0
  5 45  1  0
  8 46  1  0
  8 47  1  0
 12 48  1  0
 14 49  1  0
 16 50  1  0
 20 51  1  0
 20 52  1  0
 21 53  1  0
 21 54  1  0
 23 55  1  0
 23 56  1  0
 24 57  1  0
 24 58  1  0
 28 59  1  0
 29 60  1  0
 30 61  1  0
 31 62  1  0
 32 63  1  0
 34 64  1  0
 35 65  1  0
 38 66  1  0
 39 67  1  0
M  END
$$$$
[H]c1c([H])c2c(c([H])c1N([H])C(=O)C([H])([H])c1c([H])c(C(F)(F)F)c([H])c([H])c1C([H])([H])[H])[C@]([H])(C([H])(C([H])([H])[H])C([H])([H])C([H])([H])[H])N(C(=O)OC1([H])C([H])([H])C([H])([H])C([H])([H])C([H])([H])C1([H])[H])C([H])([H])C2([H])[H]
     RDKit          3D

 75 78  0  0  0  0  0  0  0  0999 V2000
   -4.4184   -3.0448    1.3464 C   0  0  0  0  0  0  0  0  0  0  0  0
   -3.5634   -2.1510    2.1827 C   0  0  0  0  0  0  0  0  0  0  0  0
   -2.1278   -2.0576    1.6458 C   0  0  0  0  0  0  0  0  0  0  0  0
   -1.5745   -3.4491    1.6976 C   0  0  0  0  0  0  0  0  0  0  0  0
   -1.4076   -1.0429    2.3960 C   0  0  2  0  0  0  0  0  0  0  0  0
   -1.9061    0.3194    2.3338 N   0  0  0  0  0  0  0  0  0  0  0  0
   -1.4905    1.1650    3.4676 C   0  0  0  0  0  0  0  0  0  0  0  0
   -0.3395    0.5628    4.2356 C   0  0  0  0  0  0  0  0  0  0  0  0
    0.5875   -0.0280    3.1974 C   0  0  0  0  0  0  0  0  0  0  0  0
    1.9255    0.2840    3.2093 C   0  0  0  0  0  0  0  0  0  0  0  0
    2.7191   -0.2875    2.2438 C   0  0  0  0  0  0  0  0  0  0  0  0
    2.1779   -1.1545    1.2876 C   0  0  0  0  0  0  0  0  0  0  0  0
    3.0827   -1.6398    0.2949 N   0  0  0  0  0  0  0  0  0  0  0  0
    3.8976   -0.7210   -0.3621 C   0  0  0  0  0  0  0  0  0  0  0  0
    3.7384    0.5227   -0.0327 O   0  0  0  0  0  0  0  0  0  0  0  0
    4.9176   -0.9535   -1.3737 C   0  0  0  0  0  0  0  0  0  0  0  0
    5.5254    0.3321   -1.8418 C   0  0  0  0  0  0  0  0  0  0  0  0
    6.7329    0.7699   -1.3334 C   0  0  0  0  0  0  0  0  0  0  0  0
    7.3035    1.9623   -1.6771 C   0  0  0  0  0  0  0  0  0  0  0  0
    6.6667    2.7859   -2.5725 C   0  0  0  0  0  0  0  0  0  0  0  0
    5.4566    2.3584   -3.0921 C   0  0  0  0  0  0  0  0  0  0  0  0
    4.8754    1.1572   -2.7502 C   0  0  0  0  0  0  0  0  0  0  0  0
    3.5764    0.7438   -3.3535 C   0  0  0  0  0  0  0  0  0  0  0  0
    8.6216    2.4063   -1.0854 C   0  0  0  0  0  0  0  0  0  0  0  0
    8.4205    3.5422   -0.2863 F   0  0  0  0  0  0  0  0  0  0  0  0
    9.0847    1.3690   -0.2790 F   0  0  0  0  0  0  0  0  0  0  0  0
    9.5569    2.6818   -2.0379 F   0  0  0  0  0  0  0  0  0  0  0  0
    0.8410   -1.4643    1.2803 C   0  0  0  0  0  0  0  0  0  0  0  0
    0.0433   -0.8955    2.2407 C   0  0  0  0  0  0  0  0  0  0  0  0
   -2.7029    0.8919    1.3457 C   0  0  0  0  0  0  0  0  0  0  0  0
   -2.9487    2.1603    1.5110 O   0  0  0  0  0  0  0  0  0  0  0  0
   -3.2731    0.3599    0.2325 O   0  0  0  0  0  0  0  0  0  0  0  0
   -4.0473    1.0644   -0.6947 C   0  0  0  0  0  0  0  0  0  0  0  0
   -3.7923    0.8006   -2.1287 C   0  0  0  0  0  0  0  0  0  0  0  0
   -4.9607   -0.0074   -2.7227 C   0  0  0  0  0  0  0  0  0  0  0  0
   -6.1663    0.9096   -2.7437 C   0  0  0  0  0  0  0  0  0  0  0  0
   -6.4320    1.3842   -1.3365 C   0  0  0  0  0  0  0  0  0  0  0  0
   -5.5123    0.7339   -0.3228 C   0  0  0  0  0  0  0  0  0  0  0  0
   -4.2488   -2.9575    0.2513 H   0  0  0  0  0  0  0  0  0  0  0  0
   -5.4917   -2.7218    1.4978 H   0  0  0  0  0  0  0  0  0  0  0  0
   -4.4023   -4.1237    1.6572 H   0  0  0  0  0  0  0  0  0  0  0  0
   -3.5106   -2.6832    3.1997 H   0  0  0  0  0  0  0  0  0  0  0  0
   -4.0054   -1.1834    2.4412 H   0  0  0  0  0  0  0  0  0  0  0  0
   -2.2374   -1.8060    0.5356 H   0  0  0  0  0  0  0  0  0  0  0  0
   -0.7014   -3.5445    2.4094 H   0  0  0  0  0  0  0  0  0  0  0  0
   -2.3011   -4.2063    2.1064 H   0  0  0  0  0  0  0  0  0  0  0  0
   -1.3091   -3.8655    0.6876 H   0  0  0  0  0  0  0  0  0  0  0  0
   -1.5441   -1.3180    3.5012 H   0  0  0  0  0  0  0  0  0  0  0  0
   -2.3463    1.2598    4.1905 H   0  0  0  0  0  0  0  0  0  0  0  0
   -1.2363    2.1865    3.1617 H   0  0  0  0  0  0  0  0  0  0  0  0
    0.2112    1.4007    4.7149 H   0  0  0  0  0  0  0  0  0  0  0  0
   -0.6609   -0.2050    4.9729 H   0  0  0  0  0  0  0  0  0  0  0  0
    2.3168    0.9600    3.9653 H   0  0  0  0  0  0  0  0  0  0  0  0
    3.7936   -0.0467    2.2675 H   0  0  0  0  0  0  0  0  0  0  0  0
    3.1133   -2.6859    0.0868 H   0  0  0  0  0  0  0  0  0  0  0  0
    4.6542   -1.6051   -2.2105 H   0  0  0  0  0  0  0  0  0  0  0  0
    5.7619   -1.5110   -0.8466 H   0  0  0  0  0  0  0  0  0  0  0  0
    7.2428    0.1471   -0.6297 H   0  0  0  0  0  0  0  0  0  0  0  0
    7.1098    3.7333   -2.8470 H   0  0  0  0  0  0  0  0  0  0  0  0
    4.9492    3.0323   -3.8089 H   0  0  0  0  0  0  0  0  0  0  0  0
    3.4238   -0.3493   -3.2160 H   0  0  0  0  0  0  0  0  0  0  0  0
    3.6005    0.9196   -4.4501 H   0  0  0  0  0  0  0  0  0  0  0  0
    2.7857    1.3568   -2.9313 H   0  0  0  0  0  0  0  0  0  0  0  0
    0.4089   -2.1332    0.5434 H   0  0  0  0  0  0  0  0  0  0  0  0
   -3.9783    2.1412   -0.4393 H   0  0  0  0  0  0  0  0  0  0  0  0
   -3.7402    1.7081   -2.7620 H   0  0  0  0  0  0  0  0  0  0  0  0
   -2.8297    0.2515   -2.3322 H   0  0  0  0  0  0  0  0  0  0  0  0
   -4.6638   -0.2918   -3.7686 H   0  0  0  0  0  0  0  0  0  0  0  0
   -5.2111   -0.8880   -2.1335 H   0  0  0  0  0  0  0  0  0  0  0  0
   -5.9214    1.7692   -3.4326 H   0  0  0  0  0  0  0  0  0  0  0  0
   -7.0680    0.3608   -3.1117 H   0  0  0  0  0  0  0  0  0  0  0  0
   -6.2651    2.5021   -1.3328 H   0  0  0  0  0  0  0  0  0  0  0  0
   -7.4668    1.1618   -1.0523 H   0  0  0  0  0  0  0  0  0  0  0  0
   -5.6912    1.2107    0.6548 H   0  0  0  0  0  0  0  0  0  0  0  0
   -5.6284   -0.3466   -0.2381 H   0  0  0  0  0  0  0  0  0  0  0  0
  1  2  1  0
  2  3  1  0
  3  4  1  0
  3  5  1  0
  5  6  1  0
  6  7  1  0
  7  8  1  0
  8  9  1  0
  9 10  2  0
 10 11  1  0
 11 12  2  0
 12 13  1  0
 13 14  1  0
 14 15  2  0
 14 16  1  0
 16 17  1  0
 17 18  2  0
 18 19  1  0
 19 20  2  0
 20 21  1  0
 21 22  2  0
 22 23  1  0
 19 24  1  0
 24 25  1  0
 24 26  1  0
 24 27  1  0
 12 28  1  0
 28 29  2  0
  6 30  1  0
 30 31  2  0
 30 32  1  0
 32 33  1  0
 33 34  1  0
 34 35  1  0
 35 36  1  0
 36 37  1  0
 37 38  1  0
 29  5  1  0
 38 33  1  0
 29  9  1  0
 22 17  1  0
  1 39  1  0
  1 40  1  0
  1 41  1  0
  2 42  1  0
  2 43  1  0
  3 44  1  0
  4 45  1  0
  4 46  1  0
  4 47  1  0
  5 48  1  1
  7 49  1  0
  7 50  1  0
  8 51  1  0
  8 52  1  0
 10 53  1  0
 11 54  1  0
 13 55  1  0
 16 56  1  0
 16 57  1  0
 18 58  1  0
 20 59  1  0
 21 60  1  0
 23 61  1  0
 23 62  1  0
 23 63  1  0
 28 64  1  0
 33 65  1  0
 34 66  1  0
 34 67  1  0
 35 68  1  0
 35 69  1  0
 36 70  1  0
 36 71  1  0
 37 72  1  0
 37 73  1  0
 38 74  1  0
 38 75  1  0
M  END
$$$$
[H]c1nc(N2C([H])([H])C([H])([H])N(C(=O)C([H])([H])[C@@]([H])(N([H])S(=O)(=O)C([H])([H])[H])C([H])([H])[H])C([H])([H])C2([H])[H])c([H])c([H])c1C([H])([H])N([H])c1c([H])c([H])c([H])c(N([H])[H])c1[H]
     RDKit          3D

 61 63  0  0  0  0  0  0  0  0999 V2000
    9.8837   -2.5531   -0.4973 N   0  0  0  0  0  0  0  0  0  0  0  0
    9.1962   -1.3772   -0.0548 C   0  0  0  0  0  0  0  0  0  0  0  0
    9.9426   -0.2848    0.3699 C   0  0  0  0  0  0  0  0  0  0  0  0
    9.3074    0.8517    0.7978 C   0  0  0  0  0  0  0  0  0  0  0  0
    7.9380    0.8890    0.7985 C   0  0  0  0  0  0  0  0  0  0  0  0
    7.1557   -0.1754    0.3843 C   0  0  0  0  0  0  0  0  0  0  0  0
    5.7212   -0.1205    0.3924 N   0  0  0  0  0  0  0  0  0  0  0  0
    5.1145    1.1079    0.8549 C   0  0  0  0  0  0  0  0  0  0  0  0
    3.6261    1.0050    0.8284 C   0  0  0  0  0  0  0  0  0  0  0  0
    3.0327   -0.2121    1.0729 C   0  0  0  0  0  0  0  0  0  0  0  0
    1.6364   -0.2782    1.0386 C   0  0  0  0  0  0  0  0  0  0  0  0
    0.8980    0.8389    0.7697 C   0  0  0  0  0  0  0  0  0  0  0  0
    1.5317    2.0106    0.5368 N   0  0  0  0  0  0  0  0  0  0  0  0
    2.8530    2.1408    0.5544 C   0  0  0  0  0  0  0  0  0  0  0  0
   -0.5046    0.8064    0.7316 N   0  0  0  0  0  0  0  0  0  0  0  0
   -1.2909   -0.3656    1.0240 C   0  0  0  0  0  0  0  0  0  0  0  0
   -2.1625   -0.7590   -0.1580 C   0  0  0  0  0  0  0  0  0  0  0  0
   -2.8954    0.4215   -0.5876 N   0  0  0  0  0  0  0  0  0  0  0  0
   -2.1165    1.6131   -0.8384 C   0  0  0  0  0  0  0  0  0  0  0  0
   -1.2887    2.0069    0.3763 C   0  0  0  0  0  0  0  0  0  0  0  0
   -4.2957    0.4227   -0.7549 C   0  0  0  0  0  0  0  0  0  0  0  0
   -4.8701    1.4662   -1.1251 O   0  0  0  0  0  0  0  0  0  0  0  0
   -5.0687   -0.7930   -0.4952 C   0  0  0  0  0  0  0  0  0  0  0  0
   -6.5540   -0.6037   -0.7160 C   0  0  2  0  0  0  0  0  0  0  0  0
   -6.8861   -0.1999   -2.1104 C   0  0  0  0  0  0  0  0  0  0  0  0
   -7.0367    0.2801    0.3037 N   0  0  0  0  0  0  0  0  0  0  0  0
   -8.1100   -0.4659    1.4146 S   0  0  0  0  0  0  0  0  0  0  0  0
   -9.5461   -1.0474    0.5432 C   0  0  0  0  0  0  0  0  0  0  0  0
   -8.5672    0.5740    2.3996 O   0  0  0  0  0  0  0  0  0  0  0  0
   -7.4494   -1.5750    2.1803 O   0  0  0  0  0  0  0  0  0  0  0  0
    7.8250   -1.3114   -0.0432 C   0  0  0  0  0  0  0  0  0  0  0  0
    9.6341   -3.4970   -0.1204 H   0  0  0  0  0  0  0  0  0  0  0  0
   10.6534   -2.5270   -1.2047 H   0  0  0  0  0  0  0  0  0  0  0  0
   11.0266   -0.3701    0.3479 H   0  0  0  0  0  0  0  0  0  0  0  0
    9.8962    1.6862    1.1224 H   0  0  0  0  0  0  0  0  0  0  0  0
    7.3918    1.7814    1.1337 H   0  0  0  0  0  0  0  0  0  0  0  0
    5.2104   -0.9458    0.0709 H   0  0  0  0  0  0  0  0  0  0  0  0
    5.4591    1.2951    1.8941 H   0  0  0  0  0  0  0  0  0  0  0  0
    5.3905    1.9176    0.1508 H   0  0  0  0  0  0  0  0  0  0  0  0
    3.6132   -1.1140    1.2925 H   0  0  0  0  0  0  0  0  0  0  0  0
    1.2004   -1.2469    1.2323 H   0  0  0  0  0  0  0  0  0  0  0  0
    3.3852    3.0591    0.3731 H   0  0  0  0  0  0  0  0  0  0  0  0
   -0.7623   -1.2137    1.4395 H   0  0  0  0  0  0  0  0  0  0  0  0
   -2.0327   -0.0244    1.8123 H   0  0  0  0  0  0  0  0  0  0  0  0
   -2.8490   -1.5524    0.2045 H   0  0  0  0  0  0  0  0  0  0  0  0
   -1.5783   -1.1866   -0.9889 H   0  0  0  0  0  0  0  0  0  0  0  0
   -2.7444    2.4929   -1.0812 H   0  0  0  0  0  0  0  0  0  0  0  0
   -1.3950    1.4774   -1.6690 H   0  0  0  0  0  0  0  0  0  0  0  0
   -1.9314    2.3280    1.2055 H   0  0  0  0  0  0  0  0  0  0  0  0
   -0.5825    2.7907    0.0526 H   0  0  0  0  0  0  0  0  0  0  0  0
   -4.8795   -1.1075    0.5510 H   0  0  0  0  0  0  0  0  0  0  0  0
   -4.6753   -1.5849   -1.1946 H   0  0  0  0  0  0  0  0  0  0  0  0
   -7.0193   -1.6103   -0.5242 H   0  0  0  0  0  0  0  0  0  0  0  0
   -7.8019   -0.7370   -2.4808 H   0  0  0  0  0  0  0  0  0  0  0  0
   -6.9951    0.8960   -2.2476 H   0  0  0  0  0  0  0  0  0  0  0  0
   -6.0644   -0.5337   -2.7992 H   0  0  0  0  0  0  0  0  0  0  0  0
   -6.2741    0.7710    0.8196 H   0  0  0  0  0  0  0  0  0  0  0  0
   -9.2739   -1.3852   -0.4563 H   0  0  0  0  0  0  0  0  0  0  0  0
  -10.0260   -1.8253    1.1678 H   0  0  0  0  0  0  0  0  0  0  0  0
  -10.2335   -0.1772    0.4529 H   0  0  0  0  0  0  0  0  0  0  0  0
    7.2379   -2.1691   -0.3765 H   0  0  0  0  0  0  0  0  0  0  0  0
  1  2  1  0
  2  3  2  0
  3  4  1  0
  4  5  2  0
  5  6  1  0
  6  7  1  0
  7  8  1  0
  8  9  1  0
  9 10  2  0
 10 11  1  0
 11 12  2  0
 12 13  1  0
 13 14  2  0
 12 15  1  0
 15 16  1  0
 16 17  1  0
 17 18  1  0
 18 19  1  0
 19 20  1  0
 18 21  1  0
 21 22  2  0
 21 23  1  0
 23 24  1  0
 24 25  1  0
 24 26  1  0
 26 27  1  0
 27 28  1  0
 27 29  2  0
 27 30  2  0
  6 31  2  0
 31  2  1  0
 14  9  1  0
 20 15  1  0
  1 32  1  0
  1 33  1  0
  3 34  1  0
  4 35  1  0
  5 36  1  0
  7 37  1  0
  8 38  1  0
  8 39  1  0
 10 40  1  0
 11 41  1  0
 14 42  1  0
 16 43  1  0
 16 44  1  0
 17 45  1  0
 17 46  1  0
 19 47  1  0
 19 48  1  0
 20 49  1  0
 20 50  1  0
 23 51  1  0
 23 52  1  0
 24 53  1  1
 25 54  1  0
 25 55  1  0
 25 56  1  0
 26 57  1  0
 28 58  1  0
 28 59  1  0
 28 60  1  0
 31 61  1  0
M  END
$$$$
[H]N=C(c1c([H])c([H])c([H])c(C([H])([H])[C@]([H])(C(=O)N([H])[C@@]2([H])C(=O)N([H])[C@@]2([H])N([H])C(=O)OC(C([H])([H])[H])(C([H])([H])[H])C([H])([H])[H])C([H])([H])C([H])([H])C([H])([H])C([H])([H])N([H])[H])c1[H])N([H])[H]
     RDKit          3D

 66 67  0  0  0  0  0  0  0  0999 V2000
    6.9296    0.5227   -0.2103 C   0  0  0  0  0  0  0  0  0  0  0  0
    5.7074    0.7218   -1.0795 C   0  0  0  0  0  0  0  0  0  0  0  0
    6.1687    0.6077   -2.5288 C   0  0  0  0  0  0  0  0  0  0  0  0
    5.2101    2.1304   -0.8921 C   0  0  0  0  0  0  0  0  0  0  0  0
    4.7314   -0.2551   -0.8675 O   0  0  0  0  0  0  0  0  0  0  0  0
    4.1027   -0.4956    0.3469 C   0  0  0  0  0  0  0  0  0  0  0  0
    4.4556    0.2321    1.3089 O   0  0  0  0  0  0  0  0  0  0  0  0
    3.1181   -1.4912    0.5328 N   0  0  0  0  0  0  0  0  0  0  0  0
    2.5228   -1.6697    1.8190 C   0  0  1  0  0  0  0  0  0  0  0  0
    1.0137   -1.8536    1.8258 C   0  0  1  0  0  0  0  0  0  0  0  0
    0.3056   -1.0121    0.9118 N   0  0  0  0  0  0  0  0  0  0  0  0
   -0.6368   -0.0907    1.3798 C   0  0  0  0  0  0  0  0  0  0  0  0
   -0.8490   -0.0265    2.6277 O   0  0  0  0  0  0  0  0  0  0  0  0
   -1.4093    0.8238    0.5130 C   0  0  2  0  0  0  0  0  0  0  0  0
   -2.0648    1.8872    1.3264 C   0  0  0  0  0  0  0  0  0  0  0  0
   -2.8335    2.9121    0.5874 C   0  0  0  0  0  0  0  0  0  0  0  0
   -1.9935    3.7051   -0.3956 C   0  0  0  0  0  0  0  0  0  0  0  0
   -2.9193    4.6998   -1.0638 C   0  0  0  0  0  0  0  0  0  0  0  0
   -3.5173    5.5942   -0.0844 N   0  0  0  0  0  0  0  0  0  0  0  0
   -2.2042    0.1872   -0.5465 C   0  0  0  0  0  0  0  0  0  0  0  0
   -3.2209   -0.7806   -0.2837 C   0  0  0  0  0  0  0  0  0  0  0  0
   -4.5279   -0.5066    0.0339 C   0  0  0  0  0  0  0  0  0  0  0  0
   -5.4469   -1.5307    0.2468 C   0  0  0  0  0  0  0  0  0  0  0  0
   -5.0574   -2.8467    0.1411 C   0  0  0  0  0  0  0  0  0  0  0  0
   -3.7317   -3.1579   -0.1821 C   0  0  0  0  0  0  0  0  0  0  0  0
   -2.8531   -2.1394   -0.3849 C   0  0  0  0  0  0  0  0  0  0  0  0
   -3.3785   -4.5676   -0.2845 C   0  0  0  0  0  0  0  0  0  0  0  0
   -4.3842   -5.5653   -0.0249 N   0  0  0  0  0  0  0  0  0  0  0  0
   -2.2135   -5.0131   -0.5951 N   0  0  0  0  0  0  0  0  0  0  0  0
    1.3444   -3.2154    1.4357 C   0  0  0  0  0  0  0  0  0  0  0  0
    0.9560   -4.2164    0.7787 O   0  0  0  0  0  0  0  0  0  0  0  0
    2.5564   -3.0793    2.2046 N   0  0  0  0  0  0  0  0  0  0  0  0
    6.9495   -0.5163    0.1601 H   0  0  0  0  0  0  0  0  0  0  0  0
    6.9303    1.2362    0.6569 H   0  0  0  0  0  0  0  0  0  0  0  0
    7.8557    0.6866   -0.7958 H   0  0  0  0  0  0  0  0  0  0  0  0
    6.0332   -0.4370   -2.8446 H   0  0  0  0  0  0  0  0  0  0  0  0
    7.2398    0.8945   -2.5824 H   0  0  0  0  0  0  0  0  0  0  0  0
    5.5541    1.2875   -3.1729 H   0  0  0  0  0  0  0  0  0  0  0  0
    4.4593    2.2465   -0.1114 H   0  0  0  0  0  0  0  0  0  0  0  0
    6.0831    2.7549   -0.6051 H   0  0  0  0  0  0  0  0  0  0  0  0
    4.8677    2.5440   -1.8769 H   0  0  0  0  0  0  0  0  0  0  0  0
    2.8718   -2.0613   -0.3111 H   0  0  0  0  0  0  0  0  0  0  0  0
    2.9075   -0.9804    2.5777 H   0  0  0  0  0  0  0  0  0  0  0  0
    0.6828   -1.7477    2.8991 H   0  0  0  0  0  0  0  0  0  0  0  0
    0.5135   -1.1080   -0.1031 H   0  0  0  0  0  0  0  0  0  0  0  0
   -0.5876    1.3909   -0.0437 H   0  0  0  0  0  0  0  0  0  0  0  0
   -1.2282    2.4301    1.8617 H   0  0  0  0  0  0  0  0  0  0  0  0
   -2.7012    1.5060    2.1465 H   0  0  0  0  0  0  0  0  0  0  0  0
   -3.1564    3.6838    1.3537 H   0  0  0  0  0  0  0  0  0  0  0  0
   -3.7582    2.5678    0.1330 H   0  0  0  0  0  0  0  0  0  0  0  0
   -1.2263    4.2458    0.2037 H   0  0  0  0  0  0  0  0  0  0  0  0
   -1.5036    3.1089   -1.1623 H   0  0  0  0  0  0  0  0  0  0  0  0
   -2.3905    5.3287   -1.8110 H   0  0  0  0  0  0  0  0  0  0  0  0
   -3.7607    4.1575   -1.5423 H   0  0  0  0  0  0  0  0  0  0  0  0
   -3.1461    6.5743   -0.1784 H   0  0  0  0  0  0  0  0  0  0  0  0
   -4.5564    5.5530   -0.0822 H   0  0  0  0  0  0  0  0  0  0  0  0
   -1.4812   -0.2358   -1.3093 H   0  0  0  0  0  0  0  0  0  0  0  0
   -2.6796    1.0350   -1.1314 H   0  0  0  0  0  0  0  0  0  0  0  0
   -4.7996    0.5263    0.1047 H   0  0  0  0  0  0  0  0  0  0  0  0
   -6.4595   -1.2505    0.4938 H   0  0  0  0  0  0  0  0  0  0  0  0
   -5.7602   -3.6450    0.3039 H   0  0  0  0  0  0  0  0  0  0  0  0
   -1.8389   -2.4069   -0.6402 H   0  0  0  0  0  0  0  0  0  0  0  0
   -4.2889   -6.2603    0.7353 H   0  0  0  0  0  0  0  0  0  0  0  0
   -5.2503   -5.6147   -0.6061 H   0  0  0  0  0  0  0  0  0  0  0  0
   -1.4456   -4.3498   -0.7942 H   0  0  0  0  0  0  0  0  0  0  0  0
    3.1899   -3.6549    2.7732 H   0  0  0  0  0  0  0  0  0  0  0  0
  1  2  1  0
  2  3  1  0
  2  4  1  0
  2  5  1  0
  5  6  1  0
  6  7  2  0
  6  8  1  0
  8  9  1  0
  9 10  1  0
 10 11  1  0
 11 12  1  0
 12 13  2  0
 12 14  1  0
 14 15  1  0
 15 16  1  0
 16 17  1  0
 17 18  1  0
 18 19  1  0
 14 20  1  0
 20 21  1  0
 21 22  2  0
 22 23  1  0
 23 24  2  0
 24 25  1  0
 25 26  2  0
 25 27  1  0
 27 28  1  0
 27 29  2  3
 10 30  1  0
 30 31  2  0
 30 32  1  0
 32  9  1  0
 26 21  1  0
  1 33  1  0
  1 34  1  0
  1 35  1  0
  3 36  1  0
  3 37  1  0
  3 38  1  0
  4 39  1  0
  4 40  1  0
  4 41  1  0
  8 42  1  0
  9 43  1  1
 10 44  1  1
 11 45  1  0
 14 46  1  6
 15 47  1  0
 15 48  1  0
 16 49  1  0
 16 50  1  0
 17 51  1  0
 17 52  1  0
 18 53  1  0
 18 54  1  0
 19 55  1  0
 19 56  1  0
 20 57  1  0
 20 58  1  0
 22 59  1  0
 23 60  1  0
 24 61  1  0
 26 62  1  0
 28 63  1  0
 28 64  1  0
 29 65  1  0
 32 66  1  0
M  END
$$$$
[H]c1c([H])c(-c2c([H])c([H])c(C(F)(F)F)c([H])c2[H])c(F)c([H])c1C(=O)N1C([H])([H])c2c([H])c([H])c(N([H])C([H])([H])C([H])([H])C([H])([H])N(C([H])([H])[H])C([H])([H])[H])c([H])c2C([H])([H])C1([H])[H]
     RDKit          3D

 65 68  0  0  0  0  0  0  0  0999 V2000
    8.1865   -1.8893    1.1448 C   0  0  0  0  0  0  0  0  0  0  0  0
    7.4291   -1.4297    0.0176 N   0  0  0  0  0  0  0  0  0  0  0  0
    6.6391   -2.4923   -0.6134 C   0  0  0  0  0  0  0  0  0  0  0  0
    6.5124   -0.3157    0.3485 C   0  0  0  0  0  0  0  0  0  0  0  0
    7.2533    0.9262    0.6237 C   0  0  0  0  0  0  0  0  0  0  0  0
    6.4708    2.1437    0.9812 C   0  0  0  0  0  0  0  0  0  0  0  0
    5.5805    2.6829    0.0392 N   0  0  0  0  0  0  0  0  0  0  0  0
    4.3435    2.1907   -0.4235 C   0  0  0  0  0  0  0  0  0  0  0  0
    4.2207    1.7474   -1.7490 C   0  0  0  0  0  0  0  0  0  0  0  0
    3.0530    1.2656   -2.2563 C   0  0  0  0  0  0  0  0  0  0  0  0
    1.9148    1.1965   -1.4570 C   0  0  0  0  0  0  0  0  0  0  0  0
    0.7315    0.6153   -2.0219 C   0  0  0  0  0  0  0  0  0  0  0  0
   -0.4460    0.6604   -1.1430 N   0  0  0  0  0  0  0  0  0  0  0  0
   -0.4924    1.7309   -0.1874 C   0  0  0  0  0  0  0  0  0  0  0  0
    0.7620    1.6411    0.6957 C   0  0  0  0  0  0  0  0  0  0  0  0
    1.9858    1.6248   -0.1648 C   0  0  0  0  0  0  0  0  0  0  0  0
    3.1750    2.1101    0.3437 C   0  0  0  0  0  0  0  0  0  0  0  0
   -1.3521   -0.4009   -1.1830 C   0  0  0  0  0  0  0  0  0  0  0  0
   -0.9290   -1.4990   -1.8062 O   0  0  0  0  0  0  0  0  0  0  0  0
   -2.6881   -0.5143   -0.6796 C   0  0  0  0  0  0  0  0  0  0  0  0
   -3.5021    0.5589   -0.4870 C   0  0  0  0  0  0  0  0  0  0  0  0
   -4.8330    0.3741   -0.0579 C   0  0  0  0  0  0  0  0  0  0  0  0
   -5.3814   -0.8594    0.1877 C   0  0  0  0  0  0  0  0  0  0  0  0
   -4.5376   -1.9293   -0.0001 C   0  0  0  0  0  0  0  0  0  0  0  0
   -5.0416   -3.1763    0.2861 F   0  0  0  0  0  0  0  0  0  0  0  0
   -3.2408   -1.7781   -0.4161 C   0  0  0  0  0  0  0  0  0  0  0  0
   -6.7974   -0.9459    0.4846 C   0  0  0  0  0  0  0  0  0  0  0  0
   -7.6048   -1.9323   -0.0818 C   0  0  0  0  0  0  0  0  0  0  0  0
   -8.9752   -1.9628    0.1263 C   0  0  0  0  0  0  0  0  0  0  0  0
   -9.6150   -1.0216    0.8987 C   0  0  0  0  0  0  0  0  0  0  0  0
   -8.8264   -0.0459    1.4636 C   0  0  0  0  0  0  0  0  0  0  0  0
   -7.4502   -0.0201    1.2565 C   0  0  0  0  0  0  0  0  0  0  0  0
  -11.1061   -1.0617    1.0517 C   0  0  0  0  0  0  0  0  0  0  0  0
  -11.4222   -1.0891    2.3858 F   0  0  0  0  0  0  0  0  0  0  0  0
  -11.5561   -2.2306    0.4283 F   0  0  0  0  0  0  0  0  0  0  0  0
  -11.7241   -0.0072    0.3785 F   0  0  0  0  0  0  0  0  0  0  0  0
    8.3663   -1.1473    1.9307 H   0  0  0  0  0  0  0  0  0  0  0  0
    9.1528   -2.3364    0.7571 H   0  0  0  0  0  0  0  0  0  0  0  0
    7.5866   -2.7036    1.6606 H   0  0  0  0  0  0  0  0  0  0  0  0
    7.0746   -3.4715   -0.2952 H   0  0  0  0  0  0  0  0  0  0  0  0
    5.5721   -2.4348   -0.2865 H   0  0  0  0  0  0  0  0  0  0  0  0
    6.6704   -2.3842   -1.7323 H   0  0  0  0  0  0  0  0  0  0  0  0
    5.7738   -0.2415   -0.4582 H   0  0  0  0  0  0  0  0  0  0  0  0
    5.9526   -0.6454    1.2851 H   0  0  0  0  0  0  0  0  0  0  0  0
    7.8898    1.1967   -0.2826 H   0  0  0  0  0  0  0  0  0  0  0  0
    7.9950    0.7510    1.4810 H   0  0  0  0  0  0  0  0  0  0  0  0
    7.2135    2.9554    1.2983 H   0  0  0  0  0  0  0  0  0  0  0  0
    5.9776    1.9226    1.9779 H   0  0  0  0  0  0  0  0  0  0  0  0
    5.8689    3.6345   -0.3918 H   0  0  0  0  0  0  0  0  0  0  0  0
    5.1322    1.8180   -2.3523 H   0  0  0  0  0  0  0  0  0  0  0  0
    3.0125    0.9290   -3.2896 H   0  0  0  0  0  0  0  0  0  0  0  0
    0.8717   -0.4131   -2.4322 H   0  0  0  0  0  0  0  0  0  0  0  0
    0.4098    1.2768   -2.9041 H   0  0  0  0  0  0  0  0  0  0  0  0
   -1.3423    1.6841    0.5223 H   0  0  0  0  0  0  0  0  0  0  0  0
   -0.4882    2.6964   -0.7220 H   0  0  0  0  0  0  0  0  0  0  0  0
    0.7807    2.5481    1.3204 H   0  0  0  0  0  0  0  0  0  0  0  0
    0.7330    0.7462    1.3093 H   0  0  0  0  0  0  0  0  0  0  0  0
    3.2862    2.4607    1.3692 H   0  0  0  0  0  0  0  0  0  0  0  0
   -3.1838    1.5763   -0.6833 H   0  0  0  0  0  0  0  0  0  0  0  0
   -5.4569    1.2403    0.0888 H   0  0  0  0  0  0  0  0  0  0  0  0
   -2.6027   -2.6518   -0.5645 H   0  0  0  0  0  0  0  0  0  0  0  0
   -7.1453   -2.6812   -0.7020 H   0  0  0  0  0  0  0  0  0  0  0  0
   -9.6066   -2.7348   -0.3076 H   0  0  0  0  0  0  0  0  0  0  0  0
   -9.3094    0.7321    2.0751 H   0  0  0  0  0  0  0  0  0  0  0  0
   -6.9216    0.8103    1.7489 H   0  0  0  0  0  0  0  0  0  0  0  0
  1  2  1  0
  2  3  1  0
  2  4  1  0
  4  5  1  0
  5  6  1  0
  6  7  1  0
  7  8  1  0
  8  9  2  0
  9 10  1  0
 10 11  2  0
 11 12  1  0
 12 13  1  0
 13 14  1  0
 14 15  1  0
 15 16  1  0
 16 17  2  0
 13 18  1  0
 18 19  2  0
 18 20  1  0
 20 21  2  0
 21 22  1  0
 22 23  2  0
 23 24  1  0
 24 25  1  0
 24 26  2  0
 23 27  1  0
 27 28  2  0
 28 29  1  0
 29 30  2  0
 30 31  1  0
 31 32  2  0
 30 33  1  0
 33 34  1  0
 33 35  1  0
 33 36  1  0
 17  8  1  0
 26 20  1  0
 32 27  1  0
 16 11  1  0
  1 37  1  0
  1 38  1  0
  1 39  1  0
  3 40  1  0
  3 41  1  0
  3 42  1  0
  4 43  1  0
  4 44  1  0
  5 45  1  0
  5 46  1  0
  6 47  1  0
  6 48  1  0
  7 49  1  0
  9 50  1  0
 10 51  1  0
 12 52  1  0
 12 53  1  0
 14 54  1  0
 14 55  1  0
 15 56  1  0
 15 57  1  0
 17 58  1  0
 21 59  1  0
 22 60  1  0
 26 61  1  0
 28 62  1  0
 29 63  1  0
 31 64  1  0
 32 65  1  0
M  END
$$$$
[H]C([H])=C([H])C([H])([H])[C@@]([H])(c1c([H])c([H])c([H])c([H])c1[H])N([H])C(=O)C(c1c([H])c([H])c(C(C([H])([H])[H])(C([H])([H])[H])C([H])([H])[H])c([H])c1[H])(C([H])([H])[H])C([H])([H])[H]
     RDKit          3D

 57 58  0  0  0  0  0  0  0  0999 V2000
    6.5060    1.2309   -0.2018 C   0  0  0  0  0  0  0  0  0  0  0  0
    5.8664   -0.1404   -0.1587 C   0  0  0  0  0  0  0  0  0  0  0  0
    6.3452   -0.8455    1.1264 C   0  0  0  0  0  0  0  0  0  0  0  0
    6.2358   -1.0267   -1.2877 C   0  0  0  0  0  0  0  0  0  0  0  0
    4.3851    0.0600   -0.0585 C   0  0  0  0  0  0  0  0  0  0  0  0
    3.4856   -0.2497   -1.0356 C   0  0  0  0  0  0  0  0  0  0  0  0
    2.1002   -0.0715   -0.8394 C   0  0  0  0  0  0  0  0  0  0  0  0
    1.5625    0.4122    0.3212 C   0  0  0  0  0  0  0  0  0  0  0  0
    2.5126    0.7289    1.3150 C   0  0  0  0  0  0  0  0  0  0  0  0
    3.8521    0.5534    1.1144 C   0  0  0  0  0  0  0  0  0  0  0  0
    0.1596    0.6464    0.6499 C   0  0  0  0  0  0  0  0  0  0  0  0
   -0.1668    2.1071    0.6228 C   0  0  0  0  0  0  0  0  0  0  0  0
   -0.0679    0.1242    2.1321 C   0  0  0  0  0  0  0  0  0  0  0  0
   -0.8660   -0.1409   -0.0520 C   0  0  0  0  0  0  0  0  0  0  0  0
   -0.5778   -0.8809   -1.0171 O   0  0  0  0  0  0  0  0  0  0  0  0
   -2.2154   -0.1054    0.3268 N   0  0  0  0  0  0  0  0  0  0  0  0
   -3.3414   -0.8213   -0.2386 C   0  0  1  0  0  0  0  0  0  0  0  0
   -3.7470   -1.9330    0.7199 C   0  0  0  0  0  0  0  0  0  0  0  0
   -4.8607   -2.7319    0.2321 C   0  0  0  0  0  0  0  0  0  0  0  0
   -5.1937   -2.8301   -1.0227 C   0  0  0  0  0  0  0  0  0  0  0  0
   -4.4758    0.1590   -0.3391 C   0  0  0  0  0  0  0  0  0  0  0  0
   -4.9829    0.7486    0.8183 C   0  0  0  0  0  0  0  0  0  0  0  0
   -6.0087    1.6530    0.7648 C   0  0  0  0  0  0  0  0  0  0  0  0
   -6.5656    2.0038   -0.4472 C   0  0  0  0  0  0  0  0  0  0  0  0
   -6.0520    1.4141   -1.5818 C   0  0  0  0  0  0  0  0  0  0  0  0
   -5.0142    0.4957   -1.5424 C   0  0  0  0  0  0  0  0  0  0  0  0
    7.0410    1.3461   -1.1717 H   0  0  0  0  0  0  0  0  0  0  0  0
    5.7530    2.0576   -0.1245 H   0  0  0  0  0  0  0  0  0  0  0  0
    7.1819    1.3493    0.6727 H   0  0  0  0  0  0  0  0  0  0  0  0
    6.8797   -0.1127    1.7681 H   0  0  0  0  0  0  0  0  0  0  0  0
    6.8754   -1.7722    0.9225 H   0  0  0  0  0  0  0  0  0  0  0  0
    5.4002   -1.1002    1.6983 H   0  0  0  0  0  0  0  0  0  0  0  0
    6.4120   -0.5248   -2.2485 H   0  0  0  0  0  0  0  0  0  0  0  0
    7.2538   -1.4567   -1.0192 H   0  0  0  0  0  0  0  0  0  0  0  0
    5.5606   -1.8852   -1.3338 H   0  0  0  0  0  0  0  0  0  0  0  0
    3.8656   -0.6448   -1.9640 H   0  0  0  0  0  0  0  0  0  0  0  0
    1.4598   -0.3149   -1.6587 H   0  0  0  0  0  0  0  0  0  0  0  0
    2.1709    1.1635    2.2468 H   0  0  0  0  0  0  0  0  0  0  0  0
    4.5450    0.8133    1.9140 H   0  0  0  0  0  0  0  0  0  0  0  0
   -0.3711    2.3830   -0.4504 H   0  0  0  0  0  0  0  0  0  0  0  0
   -1.0385    2.3584    1.2827 H   0  0  0  0  0  0  0  0  0  0  0  0
    0.6650    2.7579    0.9528 H   0  0  0  0  0  0  0  0  0  0  0  0
    0.7617    0.3254    2.7572 H   0  0  0  0  0  0  0  0  0  0  0  0
   -1.0174    0.5717    2.4729 H   0  0  0  0  0  0  0  0  0  0  0  0
   -0.1749   -0.9961    2.0680 H   0  0  0  0  0  0  0  0  0  0  0  0
   -2.4846    0.5340    1.1297 H   0  0  0  0  0  0  0  0  0  0  0  0
   -3.1041   -1.2367   -1.1872 H   0  0  0  0  0  0  0  0  0  0  0  0
   -2.8231   -2.5442    0.8464 H   0  0  0  0  0  0  0  0  0  0  0  0
   -3.9940   -1.5424    1.7320 H   0  0  0  0  0  0  0  0  0  0  0  0
   -5.5010   -3.3129    0.9385 H   0  0  0  0  0  0  0  0  0  0  0  0
   -4.6805   -2.3453   -1.8031 H   0  0  0  0  0  0  0  0  0  0  0  0
   -6.0653   -3.4513   -1.3310 H   0  0  0  0  0  0  0  0  0  0  0  0
   -4.5126    0.4460    1.7444 H   0  0  0  0  0  0  0  0  0  0  0  0
   -6.3678    2.0768    1.6986 H   0  0  0  0  0  0  0  0  0  0  0  0
   -7.3920    2.7253   -0.4890 H   0  0  0  0  0  0  0  0  0  0  0  0
   -6.5021    1.6967   -2.5331 H   0  0  0  0  0  0  0  0  0  0  0  0
   -4.6717    0.0753   -2.4825 H   0  0  0  0  0  0  0  0  0  0  0  0
  1  2  1  0
  2  3  1  0
  2  4  1  0
  2  5  1  0
  5  6  2  0
  6  7  1  0
  7  8  2  0
  8  9  1  0
  9 10  2  0
  8 11  1  0
 11 12  1  0
 11 13  1  0
 11 14  1  0
 14 15  2  0
 14 16  1  0
 16 17  1  0
 17 18  1  0
 18 19  1  0
 19 20  2  3
 17 21  1  0
 21 22  2  0
 22 23  1  0
 23 24  2  0
 24 25  1  0
 25 26  2  0
 10  5  1  0
 26 21  1  0
  1 27  1  0
  1 28  1  0
  1 29  1  0
  3 30  1  0
  3 31  1  0
  3 32  1  0
  4 33  1  0
  4 34  1  0
  4 35  1  0
  6 36  1  0
  7 37  1  0
  9 38  1  0
 10 39  1  0
 12 40  1  0
 12 41  1  0
 12 42  1  0
 13 43  1  0
 13 44  1  0
 13 45  1  0
 16 46  1  0
 17 47  1  6
 18 48  1  0
 18 49  1  0
 19 50  1  0
 20 51  1  0
 20 52  1  0
 22 53  1  0
 23 54  1  0
 24 55  1  0
 25 56  1  0
 26 57  1  0
M  END
$$$$
[H]c1c([H])c([H])c([C]2C([H])([H])C3([H])C([H])([H])C([H])([H])C([H])(C([H])([H])[C@]([H])(C([H])([H])[H])C([H])([H])C2([H])[H])C3([H])S(=O)(=O)[C@]2([H])N(C(=O)C([H])([H])[H])C([H])([H])C([H])([H])C2([H])[H])c([H])c1[H]
     RDKit          3D

 63 66  0  0  0  0  0  0  0  0999 V2000
    5.7227    2.4582   -1.5109 C   0  0  0  0  0  0  0  0  0  0  0  0
    4.3594    1.8136   -1.2937 C   0  0  0  0  0  0  0  0  0  0  0  0
    3.5415    2.0955   -2.2125 O   0  0  0  0  0  0  0  0  0  0  0  0
    4.1187    1.0121   -0.1766 N   0  0  0  0  0  0  0  0  0  0  0  0
    5.1226    0.7298    0.8496 C   0  0  0  0  0  0  0  0  0  0  0  0
    4.9918   -0.7781    0.9103 C   0  0  0  0  0  0  0  0  0  0  0  0
    3.5453   -1.0730    0.4808 C   0  0  0  0  0  0  0  0  0  0  0  0
    2.9652    0.2947    0.2809 C   0  0  2  0  0  0  0  0  0  0  0  0
    1.5513    0.3868   -0.7211 S   0  0  0  0  0  0  0  0  0  0  0  0
    1.8505   -0.1594   -2.0878 O   0  0  0  0  0  0  0  0  0  0  0  0
    1.1135    1.8457   -0.7876 O   0  0  0  0  0  0  0  0  0  0  0  0
    0.1424   -0.4578   -0.0570 C   0  0  0  0  0  0  0  0  0  0  0  0
   -0.2693    0.0551    1.2817 C   0  0  0  0  0  0  0  0  0  0  0  0
   -0.0388   -1.0888    2.2561 C   0  0  0  0  0  0  0  0  0  0  0  0
    0.1111   -2.3413    1.4638 C   0  0  0  0  0  0  0  0  0  0  0  0
    0.2617   -1.9404    0.0115 C   0  0  0  0  0  0  0  0  0  0  0  0
   -0.8013   -2.6296   -0.8463 C   0  0  0  0  0  0  0  0  0  0  0  0
   -2.1709   -2.5643   -0.2736 C   0  0  2  0  0  0  0  0  0  0  0  0
   -2.7634   -3.9745   -0.3907 C   0  0  0  0  0  0  0  0  0  0  0  0
   -3.0414   -1.6372   -1.0523 C   0  0  0  0  0  0  0  0  0  0  0  0
   -3.5056   -0.5173   -0.1419 C   0  0  0  0  0  0  0  0  0  0  0  0
   -2.4485    0.5354    0.0896 C   0  0  0  0  0  3  0  0  0  0  0  0
   -1.7279    0.4198    1.3860 C   0  0  0  0  0  0  0  0  0  0  0  0
   -3.1327    1.8576    0.0260 C   0  0  0  0  0  0  0  0  0  0  0  0
   -2.5493    2.9203   -0.6258 C   0  0  0  0  0  0  0  0  0  0  0  0
   -3.1676    4.1648   -0.6994 C   0  0  0  0  0  0  0  0  0  0  0  0
   -4.4018    4.3487   -0.1045 C   0  0  0  0  0  0  0  0  0  0  0  0
   -4.9883    3.2739    0.5529 C   0  0  0  0  0  0  0  0  0  0  0  0
   -4.3640    2.0380    0.6205 C   0  0  0  0  0  0  0  0  0  0  0  0
    6.1208    2.7795   -0.5031 H   0  0  0  0  0  0  0  0  0  0  0  0
    5.6501    3.3713   -2.0975 H   0  0  0  0  0  0  0  0  0  0  0  0
    6.4212    1.7096   -1.8919 H   0  0  0  0  0  0  0  0  0  0  0  0
    6.1238    1.0560    0.5796 H   0  0  0  0  0  0  0  0  0  0  0  0
    4.8127    1.1479    1.8292 H   0  0  0  0  0  0  0  0  0  0  0  0
    5.2069   -1.0834    1.9330 H   0  0  0  0  0  0  0  0  0  0  0  0
    5.6992   -1.2934    0.2437 H   0  0  0  0  0  0  0  0  0  0  0  0
    3.5542   -1.6702   -0.4703 H   0  0  0  0  0  0  0  0  0  0  0  0
    3.1340   -1.6566    1.2993 H   0  0  0  0  0  0  0  0  0  0  0  0
    2.7680    0.7016    1.3278 H   0  0  0  0  0  0  0  0  0  0  0  0
   -0.6701   -0.2674   -0.8384 H   0  0  0  0  0  0  0  0  0  0  0  0
    0.4065    0.8880    1.5627 H   0  0  0  0  0  0  0  0  0  0  0  0
   -0.8867   -1.2037    2.9710 H   0  0  0  0  0  0  0  0  0  0  0  0
    0.8515   -0.8650    2.9097 H   0  0  0  0  0  0  0  0  0  0  0  0
    1.1069   -2.7897    1.7636 H   0  0  0  0  0  0  0  0  0  0  0  0
   -0.6102   -3.1331    1.6520 H   0  0  0  0  0  0  0  0  0  0  0  0
    1.2340   -2.2383   -0.4280 H   0  0  0  0  0  0  0  0  0  0  0  0
   -0.4403   -3.6870   -1.0044 H   0  0  0  0  0  0  0  0  0  0  0  0
   -0.7419   -2.1591   -1.8539 H   0  0  0  0  0  0  0  0  0  0  0  0
   -2.2322   -2.3275    0.8070 H   0  0  0  0  0  0  0  0  0  0  0  0
   -3.8162   -3.9595   -0.0494 H   0  0  0  0  0  0  0  0  0  0  0  0
   -2.1506   -4.6632    0.2174 H   0  0  0  0  0  0  0  0  0  0  0  0
   -2.6945   -4.2683   -1.4503 H   0  0  0  0  0  0  0  0  0  0  0  0
   -2.5485   -1.2051   -1.9443 H   0  0  0  0  0  0  0  0  0  0  0  0
   -3.9561   -2.1541   -1.4332 H   0  0  0  0  0  0  0  0  0  0  0  0
   -3.8311   -0.9686    0.8204 H   0  0  0  0  0  0  0  0  0  0  0  0
   -4.4298   -0.0956   -0.6092 H   0  0  0  0  0  0  0  0  0  0  0  0
   -2.3013   -0.2732    2.0378 H   0  0  0  0  0  0  0  0  0  0  0  0
   -1.7532    1.4026    1.9451 H   0  0  0  0  0  0  0  0  0  0  0  0
   -1.5878    2.8493   -1.1126 H   0  0  0  0  0  0  0  0  0  0  0  0
   -2.7257    5.0103   -1.2062 H   0  0  0  0  0  0  0  0  0  0  0  0
   -4.9115    5.3195   -0.1474 H   0  0  0  0  0  0  0  0  0  0  0  0
   -5.9492    3.3918    1.0242 H   0  0  0  0  0  0  0  0  0  0  0  0
   -4.8797    1.2462    1.1491 H   0  0  0  0  0  0  0  0  0  0  0  0
  1  2  1  0
  2  3  2  0
  2  4  1  0
  4  5  1  0
  5  6  1  0
  6  7  1  0
  7  8  1  0
  8  9  1  0
  9 10  2  0
  9 11  2  0
  9 12  1  0
 12 13  1  0
 13 14  1  0
 14 15  1  0
 15 16  1  0
 16 17  1  0
 17 18  1  0
 18 19  1  0
 18 20  1  0
 20 21  1  0
 21 22  1  0
 22 23  1  0
 22 24  1  0
 24 25  2  0
 25 26  1  0
 26 27  2  0
 27 28  1  0
 28 29  2  0
  8  4  1  0
 16 12  1  0
 29 24  1  0
 23 13  1  0
  1 30  1  0
  1 31  1  0
  1 32  1  0
  5 33  1  0
  5 34  1  0
  6 35  1  0
  6 36  1  0
  7 37  1  0
  7 38  1  0
  8 39  1  1
 12 40  1  0
 13 41  1  0
 14 42  1  0
 14 43  1  0
 15 44  1  0
 15 45  1  0
 16 46  1  0
 17 47  1  0
 17 48  1  0
 18 49  1  1
 19 50  1  0
 19 51  1  0
 19 52  1  0
 20 53  1  0
 20 54  1  0
 21 55  1  0
 21 56  1  0
 23 57  1  0
 23 58  1  0
 25 59  1  0
 26 60  1  0
 27 61  1  0
 28 62  1  0
 29 63  1  0
M  RAD  1  22   2
M  END
$$$$
[H]c1nc([H])c2c(n1)C(=O)N([H])C(=O)C1(C([H])([H])C([H])([H])N(C([H])([H])C(=O)c3c([H])c([H])c([H])c(OC([H])([H])c4c([H])c([H])c([H])c([H])c4[H])c3[H])OC2([H])[H])C([H])([H])C([H])([H])C([H])([H])C1([H])[H]
     RDKit          3D

 68 72  0  0  0  0  0  0  0  0999 V2000
   -5.9639    2.7747    2.9031 O   0  0  0  0  0  0  0  0  0  0  0  0
   -5.4957    2.3330    1.7564 C   0  0  0  0  0  0  0  0  0  0  0  0
   -6.1571    1.1861    1.2791 N   0  0  0  0  0  0  0  0  0  0  0  0
   -5.9195    0.3107    0.2231 C   0  0  0  0  0  0  0  0  0  0  0  0
   -6.6933    0.4519   -0.8282 O   0  0  0  0  0  0  0  0  0  0  0  0
   -4.9495   -0.7810    0.0293 C   0  0  0  0  0  0  0  0  0  0  0  0
   -4.7451   -1.6938    1.2045 C   0  0  0  0  0  0  0  0  0  0  0  0
   -4.2616   -3.0023    0.6871 C   0  0  0  0  0  0  0  0  0  0  0  0
   -4.6844   -3.0251   -0.7823 C   0  0  0  0  0  0  0  0  0  0  0  0
   -5.6249   -1.8324   -0.8896 C   0  0  0  0  0  0  0  0  0  0  0  0
   -3.7108   -0.3386   -0.6765 C   0  0  0  0  0  0  0  0  0  0  0  0
   -2.4401   -0.6448    0.0025 C   0  0  0  0  0  0  0  0  0  0  0  0
   -1.4436    0.3970   -0.0380 N   0  0  0  0  0  0  0  0  0  0  0  0
   -0.1936   -0.2358   -0.3872 C   0  0  0  0  0  0  0  0  0  0  0  0
    0.9938    0.6069   -0.2865 C   0  0  0  0  0  0  0  0  0  0  0  0
    0.9624    1.7385    0.2358 O   0  0  0  0  0  0  0  0  0  0  0  0
    2.3090    0.1691   -0.7971 C   0  0  0  0  0  0  0  0  0  0  0  0
    2.4179   -1.0478   -1.4466 C   0  0  0  0  0  0  0  0  0  0  0  0
    3.6570   -1.4483   -1.9058 C   0  0  0  0  0  0  0  0  0  0  0  0
    4.7924   -0.6929   -1.7475 C   0  0  0  0  0  0  0  0  0  0  0  0
    4.6854    0.5183   -1.0998 C   0  0  0  0  0  0  0  0  0  0  0  0
    5.7430    1.3551   -0.8778 O   0  0  0  0  0  0  0  0  0  0  0  0
    7.0777    1.1764   -1.2240 C   0  0  0  0  0  0  0  0  0  0  0  0
    7.6496   -0.0362   -0.5587 C   0  0  0  0  0  0  0  0  0  0  0  0
    7.0835   -0.5315    0.6099 C   0  0  0  0  0  0  0  0  0  0  0  0
    7.5935   -1.6590    1.2331 C   0  0  0  0  0  0  0  0  0  0  0  0
    8.6613   -2.3124    0.7201 C   0  0  0  0  0  0  0  0  0  0  0  0
    9.2480   -1.8384   -0.4479 C   0  0  0  0  0  0  0  0  0  0  0  0
    8.7336   -0.7193   -1.0573 C   0  0  0  0  0  0  0  0  0  0  0  0
    3.4404    0.9299   -0.6347 C   0  0  0  0  0  0  0  0  0  0  0  0
   -1.3307    1.1931    0.9644 O   0  0  0  0  0  0  0  0  0  0  0  0
   -2.3686    1.6378    1.6930 C   0  0  0  0  0  0  0  0  0  0  0  0
   -3.0610    2.8742    1.1980 C   0  0  0  0  0  0  0  0  0  0  0  0
   -2.1681    3.8037    0.6688 C   0  0  0  0  0  0  0  0  0  0  0  0
   -2.6151    4.9827    0.1991 N   0  0  0  0  0  0  0  0  0  0  0  0
   -3.9228    5.2827    0.2319 C   0  0  0  0  0  0  0  0  0  0  0  0
   -4.7447    4.3952    0.7327 N   0  0  0  0  0  0  0  0  0  0  0  0
   -4.4007    3.1447    1.2463 C   0  0  0  0  0  0  0  0  0  0  0  0
   -7.0874    0.9005    1.8192 H   0  0  0  0  0  0  0  0  0  0  0  0
   -5.7996   -1.9010    1.5762 H   0  0  0  0  0  0  0  0  0  0  0  0
   -4.2454   -1.2772    2.0691 H   0  0  0  0  0  0  0  0  0  0  0  0
   -3.2041   -3.2202    0.8327 H   0  0  0  0  0  0  0  0  0  0  0  0
   -4.8062   -3.8729    1.1572 H   0  0  0  0  0  0  0  0  0  0  0  0
   -5.2663   -3.9464   -1.0374 H   0  0  0  0  0  0  0  0  0  0  0  0
   -3.8462   -2.9656   -1.4783 H   0  0  0  0  0  0  0  0  0  0  0  0
   -6.6335   -2.0644   -0.5513 H   0  0  0  0  0  0  0  0  0  0  0  0
   -5.5413   -1.4516   -1.9246 H   0  0  0  0  0  0  0  0  0  0  0  0
   -3.7761    0.7445   -0.8785 H   0  0  0  0  0  0  0  0  0  0  0  0
   -3.6922   -0.7639   -1.7342 H   0  0  0  0  0  0  0  0  0  0  0  0
   -2.5304   -0.9336    1.0702 H   0  0  0  0  0  0  0  0  0  0  0  0
   -2.0359   -1.6014   -0.4686 H   0  0  0  0  0  0  0  0  0  0  0  0
   -0.0078   -1.1686    0.1964 H   0  0  0  0  0  0  0  0  0  0  0  0
   -0.2974   -0.5858   -1.4487 H   0  0  0  0  0  0  0  0  0  0  0  0
    1.5234   -1.6481   -1.5746 H   0  0  0  0  0  0  0  0  0  0  0  0
    3.7820   -2.4033   -2.4240 H   0  0  0  0  0  0  0  0  0  0  0  0
    5.7446   -1.0430   -2.1340 H   0  0  0  0  0  0  0  0  0  0  0  0
    7.2825    1.1933   -2.3065 H   0  0  0  0  0  0  0  0  0  0  0  0
    7.6567    2.0400   -0.7908 H   0  0  0  0  0  0  0  0  0  0  0  0
    6.2193   -0.0008    1.0224 H   0  0  0  0  0  0  0  0  0  0  0  0
    7.0722   -1.9559    2.1374 H   0  0  0  0  0  0  0  0  0  0  0  0
    9.0499   -3.1929    1.2149 H   0  0  0  0  0  0  0  0  0  0  0  0
   10.0960   -2.3996   -0.8140 H   0  0  0  0  0  0  0  0  0  0  0  0
    9.1949   -0.3636   -1.9605 H   0  0  0  0  0  0  0  0  0  0  0  0
    3.3167    1.8826   -0.1191 H   0  0  0  0  0  0  0  0  0  0  0  0
   -3.0765    0.8214    1.9218 H   0  0  0  0  0  0  0  0  0  0  0  0
   -1.9239    1.8729    2.7278 H   0  0  0  0  0  0  0  0  0  0  0  0
   -1.1025    3.6274    0.6169 H   0  0  0  0  0  0  0  0  0  0  0  0
   -4.2190    6.2555   -0.1640 H   0  0  0  0  0  0  0  0  0  0  0  0
  1  2  2  0
  2  3  1  0
  3  4  1  0
  4  5  2  0
  4  6  1  0
  6  7  1  0
  7  8  1  0
  8  9  1  0
  9 10  1  0
  6 11  1  0
 11 12  1  0
 12 13  1  0
 13 14  1  0
 14 15  1  0
 15 16  2  0
 15 17  1  0
 17 18  2  0
 18 19  1  0
 19 20  2  0
 20 21  1  0
 21 22  1  0
 22 23  1  0
 23 24  1  0
 24 25  2  0
 25 26  1  0
 26 27  2  0
 27 28  1  0
 28 29  2  0
 21 30  2  0
 13 31  1  0
 31 32  1  0
 32 33  1  0
 33 34  2  0
 34 35  1  0
 35 36  2  0
 36 37  1  0
 37 38  2  0
 38  2  1  0
 10  6  1  0
 30 17  1  0
 38 33  1  0
 29 24  1  0
  3 39  1  0
  7 40  1  0
  7 41  1  0
  8 42  1  0
  8 43  1  0
  9 44  1  0
  9 45  1  0
 10 46  1  0
 10 47  1  0
 11 48  1  0
 11 49  1  0
 12 50  1  0
 12 51  1  0
 14 52  1  0
 14 53  1  0
 18 54  1  0
 19 55  1  0
 20 56  1  0
 23 57  1  0
 23 58  1  0
 25 59  1  0
 26 60  1  0
 27 61  1  0
 28 62  1  0
 29 63  1  0
 30 64  1  0
 32 65  1  0
 32 66  1  0
 34 67  1  0
 36 68  1  0
M  END
$$$$
[H]c1nc(N([H])c2c([H])c([H])c([H])c([H])c2S(=O)(=O)c2c([H])c([H])c([H])c([H])c2[H])c2c([H])c([H])n(C([H])([H])C([H])([H])C(=O)N3C([H])([H])C([H])([H])C4(C([H])([H])N([H])C([H])([H])C([H])(c5c([H])c([H])c(C([H])([H])[H])c(C#N)c5[H])C([H])([H])C4([H])[H])C([H])([H])C3([H])[H])c2n1
     RDKit          3D

 91 97  0  0  0  0  0  0  0  0999 V2000
  -12.6219   -0.4224    0.6010 C   0  0  0  0  0  0  0  0  0  0  0  0
  -11.2149   -0.3134    0.1466 C   0  0  0  0  0  0  0  0  0  0  0  0
  -10.8393   -1.0366   -0.9690 C   0  0  0  0  0  0  0  0  0  0  0  0
   -9.5710   -1.0014   -1.4601 C   0  0  0  0  0  0  0  0  0  0  0  0
   -8.6153   -0.2152   -0.8253 C   0  0  0  0  0  0  0  0  0  0  0  0
   -8.9897    0.5013    0.2805 C   0  0  0  0  0  0  0  0  0  0  0  0
  -10.2719    0.4530    0.7601 C   0  0  0  0  0  0  0  0  0  0  0  0
  -10.6306    1.2206    1.9263 C   0  0  0  0  0  0  0  0  0  0  0  0
  -10.9197    1.8523    2.8626 N   0  0  0  0  0  0  0  0  0  0  0  0
   -7.2378   -0.1913   -1.3793 C   0  0  0  0  0  0  0  0  0  0  0  0
   -6.8962    1.2212   -1.7765 C   0  0  0  0  0  0  0  0  0  0  0  0
   -5.5794    1.1426   -2.4182 N   0  0  0  0  0  0  0  0  0  0  0  0
   -4.6294    1.6759   -1.4948 C   0  0  0  0  0  0  0  0  0  0  0  0
   -4.1665    0.6883   -0.4405 C   0  0  0  0  0  0  0  0  0  0  0  0
   -5.3719    0.1651    0.2923 C   0  0  0  0  0  0  0  0  0  0  0  0
   -6.2250   -0.7918   -0.4406 C   0  0  0  0  0  0  0  0  0  0  0  0
   -3.3557   -0.3679   -1.0927 C   0  0  0  0  0  0  0  0  0  0  0  0
   -1.9562   -0.0146   -1.4516 C   0  0  0  0  0  0  0  0  0  0  0  0
   -1.2888    0.6699   -0.3692 N   0  0  0  0  0  0  0  0  0  0  0  0
   -2.0242    0.7513    0.8795 C   0  0  0  0  0  0  0  0  0  0  0  0
   -3.3200    1.4635    0.5420 C   0  0  0  0  0  0  0  0  0  0  0  0
    0.0277    1.2417   -0.5200 C   0  0  0  0  0  0  0  0  0  0  0  0
    0.5830    1.1162   -1.6244 O   0  0  0  0  0  0  0  0  0  0  0  0
    0.6577    1.9339    0.5894 C   0  0  0  0  0  0  0  0  0  0  0  0
    2.0111    2.4732    0.4405 C   0  0  0  0  0  0  0  0  0  0  0  0
    3.0757    1.5184    0.1654 N   0  0  0  0  0  0  0  0  0  0  0  0
    3.5967    1.1888   -1.0203 C   0  0  0  0  0  0  0  0  0  0  0  0
    4.6128    0.2830   -0.8062 C   0  0  0  0  0  0  0  0  0  0  0  0
    4.7098    0.0599    0.5353 C   0  0  0  0  0  0  0  0  0  0  0  0
    5.5420   -0.7419    1.3396 C   0  0  0  0  0  0  0  0  0  0  0  0
    6.5390   -1.5017    0.7101 N   0  0  0  0  0  0  0  0  0  0  0  0
    7.4507   -2.3716    1.3343 C   0  0  0  0  0  0  0  0  0  0  0  0
    7.2581   -2.8802    2.5922 C   0  0  0  0  0  0  0  0  0  0  0  0
    8.1167   -3.8165    3.1875 C   0  0  0  0  0  0  0  0  0  0  0  0
    9.2020   -4.2430    2.4723 C   0  0  0  0  0  0  0  0  0  0  0  0
    9.4097   -3.7455    1.2160 C   0  0  0  0  0  0  0  0  0  0  0  0
    8.5535   -2.8068    0.6168 C   0  0  0  0  0  0  0  0  0  0  0  0
    9.0186   -2.2311   -0.9400 S   0  0  0  0  0  0  0  0  0  0  0  0
    7.9404   -2.4834   -1.9742 O   0  0  0  0  0  0  0  0  0  0  0  0
   10.2404   -3.0043   -1.4450 O   0  0  0  0  0  0  0  0  0  0  0  0
    9.5143   -0.5535   -0.9484 C   0  0  0  0  0  0  0  0  0  0  0  0
   10.7994   -0.2435   -0.5187 C   0  0  0  0  0  0  0  0  0  0  0  0
   11.2000    1.0590   -0.5477 C   0  0  0  0  0  0  0  0  0  0  0  0
   10.3544    2.0725   -0.9949 C   0  0  0  0  0  0  0  0  0  0  0  0
    9.0912    1.7403   -1.4136 C   0  0  0  0  0  0  0  0  0  0  0  0
    8.6651    0.4083   -1.3901 C   0  0  0  0  0  0  0  0  0  0  0  0
    5.2969   -0.6606    2.6397 N   0  0  0  0  0  0  0  0  0  0  0  0
    4.3635    0.0892    3.2234 C   0  0  0  0  0  0  0  0  0  0  0  0
    3.5716    0.8533    2.4538 N   0  0  0  0  0  0  0  0  0  0  0  0
    3.7506    0.8326    1.1224 C   0  0  0  0  0  0  0  0  0  0  0  0
  -12.6707    0.0242    1.6279 H   0  0  0  0  0  0  0  0  0  0  0  0
  -12.8755   -1.5088    0.6847 H   0  0  0  0  0  0  0  0  0  0  0  0
  -13.3384    0.0442   -0.0848 H   0  0  0  0  0  0  0  0  0  0  0  0
  -11.5807   -1.6538   -1.4705 H   0  0  0  0  0  0  0  0  0  0  0  0
   -9.3107   -1.5860   -2.3439 H   0  0  0  0  0  0  0  0  0  0  0  0
   -8.2886    1.1170    0.7951 H   0  0  0  0  0  0  0  0  0  0  0  0
   -7.2459   -0.7832   -2.3166 H   0  0  0  0  0  0  0  0  0  0  0  0
   -7.6160    1.5350   -2.5580 H   0  0  0  0  0  0  0  0  0  0  0  0
   -6.9089    1.9276   -0.9504 H   0  0  0  0  0  0  0  0  0  0  0  0
   -5.5677    1.7718   -3.2698 H   0  0  0  0  0  0  0  0  0  0  0  0
   -3.7104    2.0723   -1.9950 H   0  0  0  0  0  0  0  0  0  0  0  0
   -5.1483    2.5032   -0.9270 H   0  0  0  0  0  0  0  0  0  0  0  0
   -4.9816   -0.3759    1.2040 H   0  0  0  0  0  0  0  0  0  0  0  0
   -5.9156    1.0282    0.6812 H   0  0  0  0  0  0  0  0  0  0  0  0
   -6.7935   -1.4005    0.3001 H   0  0  0  0  0  0  0  0  0  0  0  0
   -5.5871   -1.5463   -0.9826 H   0  0  0  0  0  0  0  0  0  0  0  0
   -3.8808   -0.6299   -2.0607 H   0  0  0  0  0  0  0  0  0  0  0  0
   -3.3363   -1.3295   -0.5369 H   0  0  0  0  0  0  0  0  0  0  0  0
   -1.3659   -0.8621   -1.8353 H   0  0  0  0  0  0  0  0  0  0  0  0
   -2.0184    0.7342   -2.2971 H   0  0  0  0  0  0  0  0  0  0  0  0
   -2.1769   -0.2657    1.2845 H   0  0  0  0  0  0  0  0  0  0  0  0
   -1.4867    1.4022    1.5975 H   0  0  0  0  0  0  0  0  0  0  0  0
   -3.9188    1.6924    1.4396 H   0  0  0  0  0  0  0  0  0  0  0  0
   -2.9985    2.4144    0.0431 H   0  0  0  0  0  0  0  0  0  0  0  0
   -0.0191    2.8168    0.8285 H   0  0  0  0  0  0  0  0  0  0  0  0
    0.6624    1.2795    1.5263 H   0  0  0  0  0  0  0  0  0  0  0  0
    2.2848    2.9649    1.4236 H   0  0  0  0  0  0  0  0  0  0  0  0
    2.0961    3.3067   -0.2940 H   0  0  0  0  0  0  0  0  0  0  0  0
    3.3185    1.5502   -2.0096 H   0  0  0  0  0  0  0  0  0  0  0  0
    5.2527   -0.1972   -1.5373 H   0  0  0  0  0  0  0  0  0  0  0  0
    6.5622   -1.4154   -0.3626 H   0  0  0  0  0  0  0  0  0  0  0  0
    6.4247   -2.6121    3.2142 H   0  0  0  0  0  0  0  0  0  0  0  0
    7.9267   -4.1889    4.1794 H   0  0  0  0  0  0  0  0  0  0  0  0
    9.8737   -4.9677    2.9207 H   0  0  0  0  0  0  0  0  0  0  0  0
   10.2735   -4.1013    0.6790 H   0  0  0  0  0  0  0  0  0  0  0  0
   11.4369   -1.0154   -0.1795 H   0  0  0  0  0  0  0  0  0  0  0  0
   12.2045    1.3316   -0.2162 H   0  0  0  0  0  0  0  0  0  0  0  0
   10.6975    3.0779   -1.0043 H   0  0  0  0  0  0  0  0  0  0  0  0
    8.4237    2.4993   -1.7608 H   0  0  0  0  0  0  0  0  0  0  0  0
    7.6455    0.2131   -1.7388 H   0  0  0  0  0  0  0  0  0  0  0  0
    4.2299    0.0957    4.3142 H   0  0  0  0  0  0  0  0  0  0  0  0
  1  2  1  0
  2  3  2  0
  3  4  1  0
  4  5  2  0
  5  6  1  0
  6  7  2  0
  7  8  1  0
  8  9  3  0
  5 10  1  0
 10 11  1  0
 11 12  1  0
 12 13  1  0
 13 14  1  0
 14 15  1  0
 15 16  1  0
 14 17  1  0
 17 18  1  0
 18 19  1  0
 19 20  1  0
 20 21  1  0
 19 22  1  0
 22 23  2  0
 22 24  1  0
 24 25  1  0
 25 26  1  0
 26 27  1  0
 27 28  2  0
 28 29  1  0
 29 30  2  0
 30 31  1  0
 31 32  1  0
 32 33  2  0
 33 34  1  0
 34 35  2  0
 35 36  1  0
 36 37  2  0
 37 38  1  0
 38 39  2  0
 38 40  2  0
 38 41  1  0
 41 42  2  0
 42 43  1  0
 43 44  2  0
 44 45  1  0
 45 46  2  0
 30 47  1  0
 47 48  2  0
 48 49  1  0
 49 50  2  0
  7  2  1  0
 16 10  1  0
 50 26  1  0
 21 14  1  0
 50 29  1  0
 37 32  1  0
 46 41  1  0
  1 51  1  0
  1 52  1  0
  1 53  1  0
  3 54  1  0
  4 55  1  0
  6 56  1  0
 10 57  1  0
 11 58  1  0
 11 59  1  0
 12 60  1  0
 13 61  1  0
 13 62  1  0
 15 63  1  0
 15 64  1  0
 16 65  1  0
 16 66  1  0
 17 67  1  0
 17 68  1  0
 18 69  1  0
 18 70  1  0
 20 71  1  0
 20 72  1  0
 21 73  1  0
 21 74  1  0
 24 75  1  0
 24 76  1  0
 25 77  1  0
 25 78  1  0
 27 79  1  0
 28 80  1  0
 31 81  1  0
 33 82  1  0
 34 83  1  0
 35 84  1  0
 36 85  1  0
 42 86  1  0
 43 87  1  0
 44 88  1  0
 45 89  1  0
 46 90  1  0
 48 91  1  0
M  END
$$$$
[H]OC(=O)[C@]([H])(N([H])C(=O)[C@@]([H])(N([H])C(=O)[C@@]([H])(N([H])C(=O)OC([H])([H])c1nnc(-n2c([H])nnc2[H])c([H])c1[H])C([H])([H])c1c([H])c([H])c(O[H])c([H])c1[H])C([H])([H])c1c([H])c([H])c(O[H])c([H])c1[H])C([H])([H])C([H])(C([H])([H])[H])C([H])([H])[H]
     RDKit          3D

 84 87  0  0  0  0  0  0  0  0999 V2000
   -6.1293   -4.4727   -0.2650 C   0  0  0  0  0  0  0  0  0  0  0  0
   -5.1193   -3.3194   -0.3803 C   0  0  0  0  0  0  0  0  0  0  0  0
   -5.8454   -2.1960   -1.0680 C   0  0  0  0  0  0  0  0  0  0  0  0
   -3.9650   -3.8433   -1.1566 C   0  0  0  0  0  0  0  0  0  0  0  0
   -2.8405   -2.9105   -1.4107 C   0  0  1  0  0  0  0  0  0  0  0  0
   -2.1736   -2.3740   -0.2618 N   0  0  0  0  0  0  0  0  0  0  0  0
   -1.6856   -1.0180   -0.2174 C   0  0  0  0  0  0  0  0  0  0  0  0
   -1.8938   -0.3210   -1.2689 O   0  0  0  0  0  0  0  0  0  0  0  0
   -0.9928   -0.4763    0.9476 C   0  0  2  0  0  0  0  0  0  0  0  0
   -1.8823   -0.2841    2.1605 C   0  0  0  0  0  0  0  0  0  0  0  0
   -2.9932    0.6544    1.9511 C   0  0  0  0  0  0  0  0  0  0  0  0
   -2.8540    2.0142    2.1995 C   0  0  0  0  0  0  0  0  0  0  0  0
   -3.9012    2.8873    2.0064 C   0  0  0  0  0  0  0  0  0  0  0  0
   -5.1295    2.4515    1.5600 C   0  0  0  0  0  0  0  0  0  0  0  0
   -6.1949    3.3406    1.3639 O   0  0  0  0  0  0  0  0  0  0  0  0
   -5.2821    1.1036    1.3095 C   0  0  0  0  0  0  0  0  0  0  0  0
   -4.2238    0.2412    1.5075 C   0  0  0  0  0  0  0  0  0  0  0  0
   -0.5291    0.8732    0.5849 N   0  0  0  0  0  0  0  0  0  0  0  0
    0.8088    1.2170    0.8087 C   0  0  0  0  0  0  0  0  0  0  0  0
    1.5988    0.3999    1.3105 O   0  0  0  0  0  0  0  0  0  0  0  0
    1.2725    2.5817    0.4351 C   0  0  2  0  0  0  0  0  0  0  0  0
    0.9192    2.8483   -0.9915 C   0  0  0  0  0  0  0  0  0  0  0  0
    1.3076    4.1780   -1.4966 C   0  0  0  0  0  0  0  0  0  0  0  0
    0.4815    5.2908   -1.3183 C   0  0  0  0  0  0  0  0  0  0  0  0
    0.8106    6.5396   -1.7932 C   0  0  0  0  0  0  0  0  0  0  0  0
    1.9800    6.7292   -2.4670 C   0  0  0  0  0  0  0  0  0  0  0  0
    2.3247    7.9968   -2.9546 O   0  0  0  0  0  0  0  0  0  0  0  0
    2.8188    5.6574   -2.6620 C   0  0  0  0  0  0  0  0  0  0  0  0
    2.4728    4.3928   -2.1744 C   0  0  0  0  0  0  0  0  0  0  0  0
    2.6691    2.6851    0.7602 N   0  0  0  0  0  0  0  0  0  0  0  0
    3.6674    1.8941    0.1283 C   0  0  0  0  0  0  0  0  0  0  0  0
    3.3897    1.0352   -0.7782 O   0  0  0  0  0  0  0  0  0  0  0  0
    4.9761    2.0507    0.4969 O   0  0  0  0  0  0  0  0  0  0  0  0
    6.0704    1.3588   -0.0123 C   0  0  0  0  0  0  0  0  0  0  0  0
    5.9625   -0.1094    0.2341 C   0  0  0  0  0  0  0  0  0  0  0  0
    6.8376   -0.9971   -0.3820 C   0  0  0  0  0  0  0  0  0  0  0  0
    6.7338   -2.3502   -0.1377 C   0  0  0  0  0  0  0  0  0  0  0  0
    5.7720   -2.8510    0.7129 C   0  0  0  0  0  0  0  0  0  0  0  0
    4.9503   -1.9518    1.2837 N   0  0  0  0  0  0  0  0  0  0  0  0
    5.0451   -0.6529    1.0531 N   0  0  0  0  0  0  0  0  0  0  0  0
    5.6508   -4.2462    0.9781 N   0  0  0  0  0  0  0  0  0  0  0  0
    4.6140   -4.9062    1.5233 C   0  0  0  0  0  0  0  0  0  0  0  0
    4.8729   -6.2232    1.6140 N   0  0  0  0  0  0  0  0  0  0  0  0
    6.0883   -6.3923    1.1192 N   0  0  0  0  0  0  0  0  0  0  0  0
    6.5792   -5.1833    0.7238 C   0  0  0  0  0  0  0  0  0  0  0  0
   -1.8469   -3.6894   -2.2520 C   0  0  0  0  0  0  0  0  0  0  0  0
   -2.2875   -4.2775   -3.3929 O   0  0  0  0  0  0  0  0  0  0  0  0
   -0.6727   -3.7682   -1.8810 O   0  0  0  0  0  0  0  0  0  0  0  0
   -6.2185   -4.9250   -1.2688 H   0  0  0  0  0  0  0  0  0  0  0  0
   -5.8259   -5.1943    0.5159 H   0  0  0  0  0  0  0  0  0  0  0  0
   -7.1133   -4.0043   -0.0357 H   0  0  0  0  0  0  0  0  0  0  0  0
   -4.7951   -3.0112    0.6131 H   0  0  0  0  0  0  0  0  0  0  0  0
   -6.5092   -1.7224   -0.2871 H   0  0  0  0  0  0  0  0  0  0  0  0
   -5.1505   -1.3781   -1.3803 H   0  0  0  0  0  0  0  0  0  0  0  0
   -6.4192   -2.5170   -1.9480 H   0  0  0  0  0  0  0  0  0  0  0  0
   -3.5692   -4.7308   -0.6023 H   0  0  0  0  0  0  0  0  0  0  0  0
   -4.3229   -4.1936   -2.1664 H   0  0  0  0  0  0  0  0  0  0  0  0
   -3.1323   -2.0703   -2.0887 H   0  0  0  0  0  0  0  0  0  0  0  0
   -2.0276   -2.9769    0.5850 H   0  0  0  0  0  0  0  0  0  0  0  0
   -0.1444   -1.0951    1.2830 H   0  0  0  0  0  0  0  0  0  0  0  0
   -2.2358   -1.2942    2.4709 H   0  0  0  0  0  0  0  0  0  0  0  0
   -1.2334    0.0731    2.9861 H   0  0  0  0  0  0  0  0  0  0  0  0
   -1.8850    2.3377    2.5489 H   0  0  0  0  0  0  0  0  0  0  0  0
   -3.7653    3.9356    2.2064 H   0  0  0  0  0  0  0  0  0  0  0  0
   -7.0908    3.0484    1.0425 H   0  0  0  0  0  0  0  0  0  0  0  0
   -6.2465    0.7660    0.9592 H   0  0  0  0  0  0  0  0  0  0  0  0
   -4.3600   -0.8007    1.3131 H   0  0  0  0  0  0  0  0  0  0  0  0
   -1.2175    1.5210    0.1720 H   0  0  0  0  0  0  0  0  0  0  0  0
    0.7480    3.3284    1.1030 H   0  0  0  0  0  0  0  0  0  0  0  0
   -0.2069    2.7725   -1.0504 H   0  0  0  0  0  0  0  0  0  0  0  0
    1.2702    2.0294   -1.6662 H   0  0  0  0  0  0  0  0  0  0  0  0
   -0.4418    5.1194   -0.7807 H   0  0  0  0  0  0  0  0  0  0  0  0
    0.1558    7.4006   -1.6473 H   0  0  0  0  0  0  0  0  0  0  0  0
    3.1924    8.1094   -3.4477 H   0  0  0  0  0  0  0  0  0  0  0  0
    3.7400    5.8259   -3.1973 H   0  0  0  0  0  0  0  0  0  0  0  0
    3.1668    3.6017   -2.3713 H   0  0  0  0  0  0  0  0  0  0  0  0
    3.0165    3.3711    1.5005 H   0  0  0  0  0  0  0  0  0  0  0  0
    7.0172    1.7079    0.4021 H   0  0  0  0  0  0  0  0  0  0  0  0
    6.0846    1.5434   -1.1241 H   0  0  0  0  0  0  0  0  0  0  0  0
    7.5818   -0.5792   -1.0441 H   0  0  0  0  0  0  0  0  0  0  0  0
    7.4013   -3.0543   -0.6037 H   0  0  0  0  0  0  0  0  0  0  0  0
    3.7024   -4.4351    1.8417 H   0  0  0  0  0  0  0  0  0  0  0  0
    7.5582   -5.0793    0.2884 H   0  0  0  0  0  0  0  0  0  0  0  0
   -2.9561   -5.0369   -3.4247 H   0  0  0  0  0  0  0  0  0  0  0  0
  1  2  1  0
  2  3  1  0
  2  4  1  0
  4  5  1  0
  5  6  1  0
  6  7  1  0
  7  8  2  0
  7  9  1  0
  9 10  1  0
 10 11  1  0
 11 12  2  0
 12 13  1  0
 13 14  2  0
 14 15  1  0
 14 16  1  0
 16 17  2  0
  9 18  1  0
 18 19  1  0
 19 20  2  0
 19 21  1  0
 21 22  1  0
 22 23  1  0
 23 24  2  0
 24 25  1  0
 25 26  2  0
 26 27  1  0
 26 28  1  0
 28 29  2  0
 21 30  1  0
 30 31  1  0
 31 32  2  0
 31 33  1  0
 33 34  1  0
 34 35  1  0
 35 36  2  0
 36 37  1  0
 37 38  2  0
 38 39  1  0
 39 40  2  0
 38 41  1  0
 41 42  1  0
 42 43  2  0
 43 44  1  0
 44 45  2  0
  5 46  1  0
 46 47  1  0
 46 48  2  0
 17 11  1  0
 29 23  1  0
 40 35  1  0
 45 41  1  0
  1 49  1  0
  1 50  1  0
  1 51  1  0
  2 52  1  0
  3 53  1  0
  3 54  1  0
  3 55  1  0
  4 56  1  0
  4 57  1  0
  5 58  1  6
  6 59  1  0
  9 60  1  1
 10 61  1  0
 10 62  1  0
 12 63  1  0
 13 64  1  0
 15 65  1  0
 16 66  1  0
 17 67  1  0
 18 68  1  0
 21 69  1  1
 22 70  1  0
 22 71  1  0
 24 72  1  0
 25 73  1  0
 27 74  1  0
 28 75  1  0
 29 76  1  0
 30 77  1  0
 34 78  1  0
 34 79  1  0
 36 80  1  0
 37 81  1  0
 42 82  1  0
 45 83  1  0
 47 84  1  0
M  END
$$$$
[H]c1nc(OC([H])([H])C([H])([H])N2C([H])([H])C([H])([H])OC([H])([H])C2([H])[H])nc([H])c1-c1nn([H])c2c([H])c(SC([H])([H])[H])c([H])c(C#CC([H])([H])C([H])([H])C([H])([H])N([H])[H])c12
     RDKit          3D

 60 63  0  0  0  0  0  0  0  0999 V2000
   -6.3676   -5.4576    0.1113 C   0  0  0  0  0  0  0  0  0  0  0  0
   -6.4077   -3.6538    0.2100 S   0  0  0  0  0  0  0  0  0  0  0  0
   -4.7574   -2.9995    0.0491 C   0  0  0  0  0  0  0  0  0  0  0  0
   -4.4930   -1.6505    0.0958 C   0  0  0  0  0  0  0  0  0  0  0  0
   -3.1752   -1.1631   -0.0377 C   0  0  0  0  0  0  0  0  0  0  0  0
   -2.9860    0.2617    0.1007 C   0  0  0  0  0  0  0  0  0  0  0  0
   -2.8824    1.4625    0.2469 C   0  0  0  0  0  0  0  0  0  0  0  0
   -2.7562    2.9247    0.3981 C   0  0  0  0  0  0  0  0  0  0  0  0
   -4.1932    3.4483    0.3445 C   0  0  0  0  0  0  0  0  0  0  0  0
   -4.7670    3.0399   -0.9969 C   0  0  0  0  0  0  0  0  0  0  0  0
   -6.1294    3.5313   -1.0543 N   0  0  0  0  0  0  0  0  0  0  0  0
   -2.1476   -2.0174   -0.2169 C   0  0  0  0  0  0  0  0  0  0  0  0
   -0.8094   -1.8861   -0.3647 C   0  0  0  0  0  0  0  0  0  0  0  0
   -0.3289   -3.1719   -0.4856 N   0  0  0  0  0  0  0  0  0  0  0  0
   -1.2972   -4.0458   -0.4227 N   0  0  0  0  0  0  0  0  0  0  0  0
   -2.4440   -3.3843   -0.2585 C   0  0  0  0  0  0  0  0  0  0  0  0
   -3.7172   -3.8962   -0.1311 C   0  0  0  0  0  0  0  0  0  0  0  0
    0.0677   -0.7397   -0.3949 C   0  0  0  0  0  0  0  0  0  0  0  0
    0.0375    0.2803   -1.3017 C   0  0  0  0  0  0  0  0  0  0  0  0
    0.8800    1.3251   -1.2614 N   0  0  0  0  0  0  0  0  0  0  0  0
    1.8443    1.4324   -0.2837 C   0  0  0  0  0  0  0  0  0  0  0  0
    2.6703    2.5314   -0.2923 O   0  0  0  0  0  0  0  0  0  0  0  0
    3.6829    2.8567    0.5317 C   0  0  0  0  0  0  0  0  0  0  0  0
    4.9772    2.1828    0.6009 C   0  0  0  0  0  0  0  0  0  0  0  0
    5.0879    0.7832    0.8207 N   0  0  0  0  0  0  0  0  0  0  0  0
    6.4430    0.5731    1.3938 C   0  0  0  0  0  0  0  0  0  0  0  0
    6.9441   -0.8257    1.1257 C   0  0  0  0  0  0  0  0  0  0  0  0
    7.3161   -0.9416   -0.2289 O   0  0  0  0  0  0  0  0  0  0  0  0
    6.6520    0.0528   -0.9655 C   0  0  0  0  0  0  0  0  0  0  0  0
    5.2293    0.1674   -0.5348 C   0  0  0  0  0  0  0  0  0  0  0  0
    1.8721    0.4303    0.6040 N   0  0  0  0  0  0  0  0  0  0  0  0
    1.0463   -0.6246    0.5912 C   0  0  0  0  0  0  0  0  0  0  0  0
   -5.6786   -5.7485   -0.7251 H   0  0  0  0  0  0  0  0  0  0  0  0
   -7.3787   -5.8869   -0.0603 H   0  0  0  0  0  0  0  0  0  0  0  0
   -5.9298   -5.9165    1.0319 H   0  0  0  0  0  0  0  0  0  0  0  0
   -5.3114   -0.9715    0.2359 H   0  0  0  0  0  0  0  0  0  0  0  0
   -2.1821    3.3897   -0.4200 H   0  0  0  0  0  0  0  0  0  0  0  0
   -2.3144    3.1910    1.3773 H   0  0  0  0  0  0  0  0  0  0  0  0
   -4.7872    3.0951    1.1845 H   0  0  0  0  0  0  0  0  0  0  0  0
   -4.1553    4.5546    0.3754 H   0  0  0  0  0  0  0  0  0  0  0  0
   -4.7462    1.9225   -1.0680 H   0  0  0  0  0  0  0  0  0  0  0  0
   -4.1760    3.4268   -1.8372 H   0  0  0  0  0  0  0  0  0  0  0  0
   -6.1889    4.3735   -0.4421 H   0  0  0  0  0  0  0  0  0  0  0  0
   -6.7793    2.7786   -0.7248 H   0  0  0  0  0  0  0  0  0  0  0  0
   -1.2056   -5.0968   -0.4878 H   0  0  0  0  0  0  0  0  0  0  0  0
   -3.8886   -4.9584   -0.1709 H   0  0  0  0  0  0  0  0  0  0  0  0
   -0.7294    0.1975   -2.0853 H   0  0  0  0  0  0  0  0  0  0  0  0
    3.8891    3.9836    0.3802 H   0  0  0  0  0  0  0  0  0  0  0  0
    3.2499    2.9025    1.6162 H   0  0  0  0  0  0  0  0  0  0  0  0
    5.5754    2.7205    1.4199 H   0  0  0  0  0  0  0  0  0  0  0  0
    5.5747    2.4979   -0.3233 H   0  0  0  0  0  0  0  0  0  0  0  0
    7.1697    1.2933    0.9904 H   0  0  0  0  0  0  0  0  0  0  0  0
    6.3725    0.7173    2.4849 H   0  0  0  0  0  0  0  0  0  0  0  0
    7.8678   -0.9529    1.7208 H   0  0  0  0  0  0  0  0  0  0  0  0
    6.2298   -1.5979    1.4349 H   0  0  0  0  0  0  0  0  0  0  0  0
    6.6387   -0.3254   -2.0191 H   0  0  0  0  0  0  0  0  0  0  0  0
    7.2154    0.9958   -1.0050 H   0  0  0  0  0  0  0  0  0  0  0  0
    4.7613   -0.8195   -0.5493 H   0  0  0  0  0  0  0  0  0  0  0  0
    4.7031    0.8208   -1.2509 H   0  0  0  0  0  0  0  0  0  0  0  0
    1.1130   -1.4128    1.3390 H   0  0  0  0  0  0  0  0  0  0  0  0
  1  2  1  0
  2  3  1  0
  3  4  2  0
  4  5  1  0
  5  6  1  0
  6  7  3  0
  7  8  1  0
  8  9  1  0
  9 10  1  0
 10 11  1  0
  5 12  2  0
 12 13  1  0
 13 14  2  0
 14 15  1  0
 15 16  1  0
 16 17  2  0
 13 18  1  0
 18 19  2  0
 19 20  1  0
 20 21  2  0
 21 22  1  0
 22 23  1  0
 23 24  1  0
 24 25  1  0
 25 26  1  0
 26 27  1  0
 27 28  1  0
 28 29  1  0
 29 30  1  0
 21 31  1  0
 31 32  2  0
 17  3  1  0
 32 18  1  0
 16 12  1  0
 30 25  1  0
  1 33  1  0
  1 34  1  0
  1 35  1  0
  4 36  1  0
  8 37  1  0
  8 38  1  0
  9 39  1  0
  9 40  1  0
 10 41  1  0
 10 42  1  0
 11 43  1  0
 11 44  1  0
 15 45  1  0
 17 46  1  0
 19 47  1  0
 23 48  1  0
 23 49  1  0
 24 50  1  0
 24 51  1  0
 26 52  1  0
 26 53  1  0
 27 54  1  0
 27 55  1  0
 29 56  1  0
 29 57  1  0
 30 58  1  0
 30 59  1  0
 32 60  1  0
M  END
$$$$
[H]c1c([H])c([H])c(-c2nnc(-c3c([H])c([H])c(/C(=N/C([H])([H])C([H])([H])C([H])([H])C([H])([H])N([H])C(=O)C([H])([H])[H])C([H])([H])[H])c([H])c3[H])o2)c(OC(F)(F)F)c1[H]
     RDKit          3D

 56 58  0  0  0  0  0  0  0  0999 V2000
   10.3147    1.2411    0.0674 C   0  0  0  0  0  0  0  0  0  0  0  0
    8.8725    0.9695   -0.1389 C   0  0  0  0  0  0  0  0  0  0  0  0
    8.2074    1.8598   -0.7085 O   0  0  0  0  0  0  0  0  0  0  0  0
    8.3184   -0.2467    0.3013 N   0  0  0  0  0  0  0  0  0  0  0  0
    6.9321   -0.6304    0.1653 C   0  0  0  0  0  0  0  0  0  0  0  0
    6.0522    0.3264    0.9056 C   0  0  0  0  0  0  0  0  0  0  0  0
    4.5862   -0.0360    0.7994 C   0  0  0  0  0  0  0  0  0  0  0  0
    4.1102   -0.0406   -0.6387 C   0  0  0  0  0  0  0  0  0  0  0  0
    2.7177   -0.3870   -0.6869 N   0  0  0  0  0  0  0  0  0  0  0  0
    1.7994    0.4656   -0.4482 C   0  0  0  0  0  0  0  0  0  0  0  0
    2.0936    1.8642   -0.1065 C   0  0  0  0  0  0  0  0  0  0  0  0
    0.4036    0.0027   -0.5255 C   0  0  0  0  0  0  0  0  0  0  0  0
   -0.6545    0.8428   -0.2859 C   0  0  0  0  0  0  0  0  0  0  0  0
   -1.9653    0.4228   -0.3548 C   0  0  0  0  0  0  0  0  0  0  0  0
   -2.2375   -0.8787   -0.6731 C   0  0  0  0  0  0  0  0  0  0  0  0
   -1.2121   -1.7510   -0.9199 C   0  0  0  0  0  0  0  0  0  0  0  0
    0.0893   -1.2992   -0.8427 C   0  0  0  0  0  0  0  0  0  0  0  0
   -3.6295   -1.3607   -0.7551 C   0  0  0  0  0  0  0  0  0  0  0  0
   -4.0196   -2.6120   -1.0576 N   0  0  0  0  0  0  0  0  0  0  0  0
   -5.3386   -2.6153   -1.0218 N   0  0  0  0  0  0  0  0  0  0  0  0
   -5.8061   -1.3705   -0.6969 C   0  0  0  0  0  0  0  0  0  0  0  0
   -4.7181   -0.6741   -0.5528 O   0  0  0  0  0  0  0  0  0  0  0  0
   -7.2109   -1.0516   -0.5777 C   0  0  0  0  0  0  0  0  0  0  0  0
   -8.1690   -2.0113   -0.9006 C   0  0  0  0  0  0  0  0  0  0  0  0
   -9.5145   -1.7799   -0.8670 C   0  0  0  0  0  0  0  0  0  0  0  0
   -9.9243   -0.5217   -0.4907 C   0  0  0  0  0  0  0  0  0  0  0  0
   -9.0062    0.4439   -0.1655 C   0  0  0  0  0  0  0  0  0  0  0  0
   -7.6207    0.1940   -0.2017 C   0  0  0  0  0  0  0  0  0  0  0  0
   -6.7765    1.2343    0.1593 O   0  0  0  0  0  0  0  0  0  0  0  0
   -6.4362    1.5801    1.4809 C   0  0  0  0  0  0  0  0  0  0  0  0
   -7.5975    1.9494    2.1735 F   0  0  0  0  0  0  0  0  0  0  0  0
   -5.6301    2.6981    1.4476 F   0  0  0  0  0  0  0  0  0  0  0  0
   -5.8054    0.6094    2.2122 F   0  0  0  0  0  0  0  0  0  0  0  0
   10.7130    0.7283    0.9728 H   0  0  0  0  0  0  0  0  0  0  0  0
   10.8430    0.8468   -0.8318 H   0  0  0  0  0  0  0  0  0  0  0  0
   10.5398    2.3259    0.1514 H   0  0  0  0  0  0  0  0  0  0  0  0
    8.9862   -0.9342    0.7728 H   0  0  0  0  0  0  0  0  0  0  0  0
    6.6541   -0.5866   -0.9159 H   0  0  0  0  0  0  0  0  0  0  0  0
    6.7767   -1.6455    0.5822 H   0  0  0  0  0  0  0  0  0  0  0  0
    6.2977    0.2342    2.0044 H   0  0  0  0  0  0  0  0  0  0  0  0
    6.2550    1.3478    0.5928 H   0  0  0  0  0  0  0  0  0  0  0  0
    4.4645   -1.0201    1.2712 H   0  0  0  0  0  0  0  0  0  0  0  0
    4.0231    0.7249    1.3568 H   0  0  0  0  0  0  0  0  0  0  0  0
    4.3959    0.8533   -1.1872 H   0  0  0  0  0  0  0  0  0  0  0  0
    4.6548   -0.8977   -1.1352 H   0  0  0  0  0  0  0  0  0  0  0  0
    1.3706    2.4958   -0.7013 H   0  0  0  0  0  0  0  0  0  0  0  0
    1.8331    2.0607    0.9543 H   0  0  0  0  0  0  0  0  0  0  0  0
    3.0888    2.2005   -0.3944 H   0  0  0  0  0  0  0  0  0  0  0  0
   -0.4539    1.8792   -0.0318 H   0  0  0  0  0  0  0  0  0  0  0  0
   -2.7775    1.1487   -0.1505 H   0  0  0  0  0  0  0  0  0  0  0  0
   -1.3862   -2.8023   -1.1783 H   0  0  0  0  0  0  0  0  0  0  0  0
    0.9138   -1.9760   -1.0350 H   0  0  0  0  0  0  0  0  0  0  0  0
   -7.8205   -2.9752   -1.1880 H   0  0  0  0  0  0  0  0  0  0  0  0
  -10.2600   -2.5338   -1.1204 H   0  0  0  0  0  0  0  0  0  0  0  0
  -11.0058   -0.3348   -0.4649 H   0  0  0  0  0  0  0  0  0  0  0  0
   -9.3312    1.4230    0.1272 H   0  0  0  0  0  0  0  0  0  0  0  0
  1  2  1  0
  2  3  2  0
  2  4  1  0
  4  5  1  0
  5  6  1  0
  6  7  1  0
  7  8  1  0
  8  9  1  0
  9 10  2  0
 10 11  1  0
 10 12  1  0
 12 13  2  0
 13 14  1  0
 14 15  2  0
 15 16  1  0
 16 17  2  0
 15 18  1  0
 18 19  2  0
 19 20  1  0
 20 21  2  0
 21 22  1  0
 21 23  1  0
 23 24  2  0
 24 25  1  0
 25 26  2  0
 26 27  1  0
 27 28  2  0
 28 29  1  0
 29 30  1  0
 30 31  1  0
 30 32  1  0
 30 33  1  0
 17 12  1  0
 22 18  1  0
 28 23  1  0
  1 34  1  0
  1 35  1  0
  1 36  1  0
  4 37  1  0
  5 38  1  0
  5 39  1  0
  6 40  1  0
  6 41  1  0
  7 42  1  0
  7 43  1  0
  8 44  1  0
  8 45  1  0
 11 46  1  0
 11 47  1  0
 11 48  1  0
 13 49  1  0
 14 50  1  0
 16 51  1  0
 17 52  1  0
 24 53  1  0
 25 54  1  0
 26 55  1  0
 27 56  1  0
M  END
$$$$
[H]O[C@]([H])(C1([H])C([H])([H])C1([H])[H])[C@@]([H])(C(=O)N([H])C([H])([H])c1c([H])nc([H])c([H])c1[H])N([H])C(=O)c1c([H])c(-c2c([H])nc(N([H])[H])nc2C([H])([H])C([H])([H])[H])c([H])c([H])c1C#N
     RDKit          3D

 63 66  0  0  0  0  0  0  0  0999 V2000
    6.2340    1.5996   -2.2751 C   0  0  0  0  0  0  0  0  0  0  0  0
    4.9313    2.0185   -1.6082 C   0  0  0  0  0  0  0  0  0  0  0  0
    5.0068    1.7395   -0.1881 C   0  0  0  0  0  0  0  0  0  0  0  0
    5.6057    2.7268    0.5605 N   0  0  0  0  0  0  0  0  0  0  0  0
    5.8249    2.5953    1.8669 C   0  0  0  0  0  0  0  0  0  0  0  0
    6.4387    3.6396    2.5960 N   0  0  0  0  0  0  0  0  0  0  0  0
    5.4566    1.4700    2.4906 N   0  0  0  0  0  0  0  0  0  0  0  0
    4.8701    0.4664    1.8424 C   0  0  0  0  0  0  0  0  0  0  0  0
    4.6308    0.6021    0.4434 C   0  0  0  0  0  0  0  0  0  0  0  0
    3.8913   -0.4506   -0.2183 C   0  0  0  0  0  0  0  0  0  0  0  0
    4.1749   -1.0995   -1.3556 C   0  0  0  0  0  0  0  0  0  0  0  0
    3.2968   -2.0637   -1.8698 C   0  0  0  0  0  0  0  0  0  0  0  0
    2.1263   -2.3647   -1.2154 C   0  0  0  0  0  0  0  0  0  0  0  0
    1.2506   -3.3740   -1.7876 C   0  0  0  0  0  0  0  0  0  0  0  0
    0.5537   -4.1629   -2.2653 N   0  0  0  0  0  0  0  0  0  0  0  0
    1.8236   -1.7141   -0.0551 C   0  0  0  0  0  0  0  0  0  0  0  0
    2.6825   -0.7820    0.4315 C   0  0  0  0  0  0  0  0  0  0  0  0
    0.4971   -2.0119    0.6045 C   0  0  0  0  0  0  0  0  0  0  0  0
    0.7417   -2.5198    1.7948 O   0  0  0  0  0  0  0  0  0  0  0  0
   -0.7054   -1.8393    0.1868 N   0  0  0  0  0  0  0  0  0  0  0  0
   -2.0583   -1.6757   -0.2136 C   0  0  2  0  0  0  0  0  0  0  0  0
   -2.6306   -0.5250    0.5783 C   0  0  0  0  0  0  0  0  0  0  0  0
   -2.1403   -0.3089    1.7046 O   0  0  0  0  0  0  0  0  0  0  0  0
   -3.6599    0.2734    0.0744 N   0  0  0  0  0  0  0  0  0  0  0  0
   -4.1801    1.3731    0.8520 C   0  0  0  0  0  0  0  0  0  0  0  0
   -5.0564    2.2435    0.0390 C   0  0  0  0  0  0  0  0  0  0  0  0
   -4.7377    3.5719   -0.0831 C   0  0  0  0  0  0  0  0  0  0  0  0
   -5.5304    4.4438   -0.8381 C   0  0  0  0  0  0  0  0  0  0  0  0
   -6.6444    3.9240   -1.4591 C   0  0  0  0  0  0  0  0  0  0  0  0
   -6.9325    2.6366   -1.3275 N   0  0  0  0  0  0  0  0  0  0  0  0
   -6.1773    1.7772   -0.5986 C   0  0  0  0  0  0  0  0  0  0  0  0
   -2.9017   -2.8637   -0.3132 C   0  0  2  0  0  0  0  0  0  0  0  0
   -4.1884   -2.3710   -0.8036 O   0  0  0  0  0  0  0  0  0  0  0  0
   -3.1982   -3.7815    0.7868 C   0  0  0  0  0  0  0  0  0  0  0  0
   -3.9447   -3.2417    1.9915 C   0  0  0  0  0  0  0  0  0  0  0  0
   -2.5578   -3.8671    2.0915 C   0  0  0  0  0  0  0  0  0  0  0  0
    6.0986    1.3175   -3.3098 H   0  0  0  0  0  0  0  0  0  0  0  0
    6.7228    0.7653   -1.6984 H   0  0  0  0  0  0  0  0  0  0  0  0
    6.9372    2.4503   -2.1986 H   0  0  0  0  0  0  0  0  0  0  0  0
    4.0578    1.5592   -2.1217 H   0  0  0  0  0  0  0  0  0  0  0  0
    4.8213    3.1104   -1.7744 H   0  0  0  0  0  0  0  0  0  0  0  0
    6.6110    3.5308    3.6133 H   0  0  0  0  0  0  0  0  0  0  0  0
    6.7166    4.5072    2.1130 H   0  0  0  0  0  0  0  0  0  0  0  0
    4.5699   -0.4392    2.3120 H   0  0  0  0  0  0  0  0  0  0  0  0
    5.0972   -0.9367   -1.8992 H   0  0  0  0  0  0  0  0  0  0  0  0
    3.5508   -2.5646   -2.7837 H   0  0  0  0  0  0  0  0  0  0  0  0
    2.4043   -0.2732    1.3661 H   0  0  0  0  0  0  0  0  0  0  0  0
   -0.2434   -1.3238   -1.0012 H   0  0  0  0  0  0  0  0  0  0  0  0
   -2.0879   -1.2254   -1.2728 H   0  0  0  0  0  0  0  0  0  0  0  0
   -4.0460    0.0842   -0.8729 H   0  0  0  0  0  0  0  0  0  0  0  0
   -4.6063    1.0806    1.8286 H   0  0  0  0  0  0  0  0  0  0  0  0
   -3.2460    1.9689    1.1634 H   0  0  0  0  0  0  0  0  0  0  0  0
   -3.8563    4.0107    0.4029 H   0  0  0  0  0  0  0  0  0  0  0  0
   -5.2434    5.4916   -0.9096 H   0  0  0  0  0  0  0  0  0  0  0  0
   -7.2464    4.6354   -2.0373 H   0  0  0  0  0  0  0  0  0  0  0  0
   -6.4805    0.7298   -0.5385 H   0  0  0  0  0  0  0  0  0  0  0  0
   -2.5425   -3.4504   -1.2134 H   0  0  0  0  0  0  0  0  0  0  0  0
   -3.9829   -2.1203   -1.7370 H   0  0  0  0  0  0  0  0  0  0  0  0
   -3.6244   -4.7950    0.4286 H   0  0  0  0  0  0  0  0  0  0  0  0
   -4.1210   -2.1920    2.1518 H   0  0  0  0  0  0  0  0  0  0  0  0
   -4.7397   -3.9077    2.4386 H   0  0  0  0  0  0  0  0  0  0  0  0
   -1.8362   -3.1963    2.5379 H   0  0  0  0  0  0  0  0  0  0  0  0
   -2.4778   -4.9018    2.5520 H   0  0  0  0  0  0  0  0  0  0  0  0
  1  2  1  0
  2  3  1  0
  3  4  2  0
  4  5  1  0
  5  6  1  0
  5  7  2  0
  7  8  1  0
  8  9  2  0
  9 10  1  0
 10 11  2  0
 11 12  1  0
 12 13  2  0
 13 14  1  0
 14 15  3  0
 13 16  1  0
 16 17  2  0
 16 18  1  0
 18 19  2  0
 18 20  1  0
 20 21  1  0
 21 22  1  0
 22 23  2  0
 22 24  1  0
 24 25  1  0
 25 26  1  0
 26 27  2  0
 27 28  1  0
 28 29  2  0
 29 30  1  0
 30 31  2  0
 21 32  1  0
 32 33  1  0
 32 34  1  0
 34 35  1  0
 35 36  1  0
  9  3  1  0
 17 10  1  0
 31 26  1  0
 36 34  1  0
  1 37  1  0
  1 38  1  0
  1 39  1  0
  2 40  1  0
  2 41  1  0
  6 42  1  0
  6 43  1  0
  8 44  1  0
 11 45  1  0
 12 46  1  0
 17 47  1  0
 20 48  1  0
 21 49  1  6
 24 50  1  0
 25 51  1  0
 25 52  1  0
 27 53  1  0
 28 54  1  0
 29 55  1  0
 31 56  1  0
 32 57  1  6
 33 58  1  0
 34 59  1  0
 35 60  1  0
 35 61  1  0
 36 62  1  0
 36 63  1  0
M  END
$$$$
[H]OC(=O)c1c([H])c(C(=O)O[H])c([H])c(N([H])S(=O)(=O)c2c([H])c([H])c(-c3nc(P4([H])(O[H])O[C@@]([H])(N([H])[N+](=O)[O-])C4([H])[H])sc3[H])c([H])c2[H])c1[H]
     RDKit          3D

 53 56  0  0  0  0  0  0  0  0999 V2000
    9.6000   -2.3564   -0.3580 O   0  0  0  0  0  0  0  0  0  0  0  0
    8.4154   -2.5510   -1.0022 N   0  0  0  0  0  0  0  0  0  0  0  0
    7.8533   -3.6500   -0.9274 O   0  0  0  0  0  0  0  0  0  0  0  0
    7.8446   -1.5291   -1.7344 N   0  0  0  0  0  0  0  0  0  0  0  0
    6.6789   -0.8492   -1.2581 C   0  0  1  0  0  0  0  0  0  0  0  0
    6.1799    0.2448   -2.1855 C   0  0  0  0  0  0  0  0  0  0  0  0
    4.5036   -0.2163   -2.1311 P   0  0  0  0  0  0  0  0  0  0  0  0
    3.7699   -1.2229   -3.1673 O   0  0  0  0  0  0  0  0  0  0  0  0
    5.4714   -1.2876   -1.6621 O   0  0  0  0  0  0  0  0  0  0  0  0
    3.7016    0.1429   -0.6170 C   0  0  0  0  0  0  0  0  0  0  0  0
    2.5043    0.5788   -0.4043 N   0  0  0  0  0  0  0  0  0  0  0  0
    2.0688    0.8160    0.7917 C   0  0  0  0  0  0  0  0  0  0  0  0
    2.9216    0.5890    1.8421 C   0  0  0  0  0  0  0  0  0  0  0  0
    4.3237    0.0351    0.9828 S   0  0  0  0  0  0  0  0  0  0  0  0
    0.6890    1.3213    1.0256 C   0  0  0  0  0  0  0  0  0  0  0  0
    0.2317    1.5820    2.2916 C   0  0  0  0  0  0  0  0  0  0  0  0
   -1.0362    2.0499    2.5553 C   0  0  0  0  0  0  0  0  0  0  0  0
   -1.8964    2.2715    1.5132 C   0  0  0  0  0  0  0  0  0  0  0  0
   -1.4646    2.0185    0.2295 C   0  0  0  0  0  0  0  0  0  0  0  0
   -0.1930    1.5511   -0.0120 C   0  0  0  0  0  0  0  0  0  0  0  0
   -3.5286    2.8660    1.7457 S   0  0  0  0  0  0  0  0  0  0  0  0
   -3.5825    3.7886    2.9448 O   0  0  0  0  0  0  0  0  0  0  0  0
   -3.8858    3.7087    0.5576 O   0  0  0  0  0  0  0  0  0  0  0  0
   -4.5744    1.5284    1.9418 N   0  0  0  0  0  0  0  0  0  0  0  0
   -4.7977    0.5222    0.9780 C   0  0  0  0  0  0  0  0  0  0  0  0
   -5.0116    0.8887   -0.3311 C   0  0  0  0  0  0  0  0  0  0  0  0
   -5.2337   -0.1169   -1.2778 C   0  0  0  0  0  0  0  0  0  0  0  0
   -5.2374   -1.4438   -0.9037 C   0  0  0  0  0  0  0  0  0  0  0  0
   -5.0245   -1.8147    0.4008 C   0  0  0  0  0  0  0  0  0  0  0  0
   -4.8072   -0.8149    1.3222 C   0  0  0  0  0  0  0  0  0  0  0  0
   -5.0314   -3.2203    0.7816 C   0  0  0  0  0  0  0  0  0  0  0  0
   -4.8215   -3.6409    2.0793 O   0  0  0  0  0  0  0  0  0  0  0  0
   -5.2347   -4.0974   -0.0928 O   0  0  0  0  0  0  0  0  0  0  0  0
   -5.4589    0.2677   -2.6548 C   0  0  0  0  0  0  0  0  0  0  0  0
   -5.6853   -0.7077   -3.6350 O   0  0  0  0  0  0  0  0  0  0  0  0
   -5.4576    1.4673   -3.0035 O   0  0  0  0  0  0  0  0  0  0  0  0
    8.2654   -1.2515   -2.6389 H   0  0  0  0  0  0  0  0  0  0  0  0
    6.7036   -0.5660   -0.1792 H   0  0  0  0  0  0  0  0  0  0  0  0
    6.7780    0.2366   -3.0819 H   0  0  0  0  0  0  0  0  0  0  0  0
    6.3375    1.2094   -1.6386 H   0  0  0  0  0  0  0  0  0  0  0  0
    4.1702    0.8610   -2.8031 H   0  0  0  0  0  0  0  0  0  0  0  0
    3.2685   -1.9405   -2.7546 H   0  0  0  0  0  0  0  0  0  0  0  0
    2.7836    0.7128    2.9186 H   0  0  0  0  0  0  0  0  0  0  0  0
    0.9129    1.4087    3.1444 H   0  0  0  0  0  0  0  0  0  0  0  0
   -1.3448    2.2385    3.5717 H   0  0  0  0  0  0  0  0  0  0  0  0
   -2.1319    2.1861   -0.6334 H   0  0  0  0  0  0  0  0  0  0  0  0
    0.1634    1.3459   -1.0235 H   0  0  0  0  0  0  0  0  0  0  0  0
   -5.0981    1.4475    2.8615 H   0  0  0  0  0  0  0  0  0  0  0  0
   -5.0187    1.9141   -0.6706 H   0  0  0  0  0  0  0  0  0  0  0  0
   -5.4070   -2.2474   -1.6165 H   0  0  0  0  0  0  0  0  0  0  0  0
   -4.6353   -1.0690    2.3616 H   0  0  0  0  0  0  0  0  0  0  0  0
   -3.9697   -4.0118    2.4393 H   0  0  0  0  0  0  0  0  0  0  0  0
   -6.5725   -1.1939   -3.6479 H   0  0  0  0  0  0  0  0  0  0  0  0
  1  2  1  0
  2  3  2  0
  2  4  1  0
  4  5  1  0
  5  6  1  0
  6  7  1  0
  7  8  1  0
  7  9  1  0
  7 10  1  0
 10 11  2  0
 11 12  1  0
 12 13  2  0
 13 14  1  0
 12 15  1  0
 15 16  2  0
 16 17  1  0
 17 18  2  0
 18 19  1  0
 19 20  2  0
 18 21  1  0
 21 22  2  0
 21 23  2  0
 21 24  1  0
 24 25  1  0
 25 26  2  0
 26 27  1  0
 27 28  2  0
 28 29  1  0
 29 30  2  0
 29 31  1  0
 31 32  1  0
 31 33  2  0
 27 34  1  0
 34 35  1  0
 34 36  2  0
  9  5  1  0
 14 10  1  0
 20 15  1  0
 30 25  1  0
  4 37  1  0
  5 38  1  1
  6 39  1  0
  6 40  1  0
  7 41  1  0
  8 42  1  0
 13 43  1  0
 16 44  1  0
 17 45  1  0
 19 46  1  0
 20 47  1  0
 24 48  1  0
 26 49  1  0
 28 50  1  0
 30 51  1  0
 32 52  1  0
 35 53  1  0
M  CHG  2   1  -1   2   1
M  END
$$$$
[H]OC(=O)C([H])([H])N1C([H])([H])C([H])([H])C([H])(Oc2c([H])c([H])c(-c3noc(C(F)(F)F)n3)c([H])c2OC([H])([H])C([H])([H])Sc2c([H])c([H])nc(Oc3c([H])c([H])c(F)c([H])c3[H])c2[H])C([H])([H])C1([H])[H]
     RDKit          3D

 70 74  0  0  0  0  0  0  0  0999 V2000
   -8.8425   -4.2677    0.0470 O   0  0  0  0  0  0  0  0  0  0  0  0
   -7.7711   -3.3891   -0.0120 C   0  0  0  0  0  0  0  0  0  0  0  0
   -7.9871   -2.1926    0.3434 O   0  0  0  0  0  0  0  0  0  0  0  0
   -6.4778   -3.9068   -0.4791 C   0  0  0  0  0  0  0  0  0  0  0  0
   -5.4167   -2.9518   -0.5117 N   0  0  0  0  0  0  0  0  0  0  0  0
   -4.9941   -2.5117    0.7844 C   0  0  0  0  0  0  0  0  0  0  0  0
   -3.6143   -1.8855    0.7127 C   0  0  0  0  0  0  0  0  0  0  0  0
   -3.3746   -1.3604   -0.7137 C   0  0  0  0  0  0  0  0  0  0  0  0
   -3.2373   -2.5783   -1.5719 C   0  0  0  0  0  0  0  0  0  0  0  0
   -4.2728   -3.6131   -1.1611 C   0  0  0  0  0  0  0  0  0  0  0  0
   -2.2402   -0.5689   -0.7076 O   0  0  0  0  0  0  0  0  0  0  0  0
   -2.2539    0.8109   -0.5955 C   0  0  0  0  0  0  0  0  0  0  0  0
   -3.4100    1.4820   -0.3916 C   0  0  0  0  0  0  0  0  0  0  0  0
   -3.4098    2.8746   -0.2801 C   0  0  0  0  0  0  0  0  0  0  0  0
   -2.2125    3.5297   -0.3843 C   0  0  0  0  0  0  0  0  0  0  0  0
   -1.0349    2.8182   -0.5951 C   0  0  0  0  0  0  0  0  0  0  0  0
   -0.9898    1.4585   -0.7088 C   0  0  0  0  0  0  0  0  0  0  0  0
    0.1217    0.6989   -0.9099 O   0  0  0  0  0  0  0  0  0  0  0  0
    1.4479    1.0529   -1.0078 C   0  0  0  0  0  0  0  0  0  0  0  0
    2.0559    1.6230    0.2295 C   0  0  0  0  0  0  0  0  0  0  0  0
    1.9917    0.4241    1.6126 S   0  0  0  0  0  0  0  0  0  0  0  0
    3.0594   -0.9652    1.1859 C   0  0  0  0  0  0  0  0  0  0  0  0
    2.5468   -2.0621    0.4862 C   0  0  0  0  0  0  0  0  0  0  0  0
    3.3521   -3.1208    0.1598 C   0  0  0  0  0  0  0  0  0  0  0  0
    4.6528   -3.1096    0.5152 N   0  0  0  0  0  0  0  0  0  0  0  0
    5.2117   -2.0858    1.1896 C   0  0  0  0  0  0  0  0  0  0  0  0
    6.5525   -2.1102    1.5371 O   0  0  0  0  0  0  0  0  0  0  0  0
    7.5478   -1.5199    0.7896 C   0  0  0  0  0  0  0  0  0  0  0  0
    7.8717   -0.2084    1.0730 C   0  0  0  0  0  0  0  0  0  0  0  0
    8.8443    0.4750    0.3920 C   0  0  0  0  0  0  0  0  0  0  0  0
    9.5264   -0.1944   -0.6247 C   0  0  0  0  0  0  0  0  0  0  0  0
   10.4885    0.4291   -1.3249 F   0  0  0  0  0  0  0  0  0  0  0  0
    9.2287   -1.5006   -0.9322 C   0  0  0  0  0  0  0  0  0  0  0  0
    8.2417   -2.1586   -0.2253 C   0  0  0  0  0  0  0  0  0  0  0  0
    4.3913   -1.0147    1.5176 C   0  0  0  0  0  0  0  0  0  0  0  0
   -2.1400    4.9770   -0.2769 C   0  0  0  0  0  0  0  0  0  0  0  0
   -3.1728    5.8360   -0.0596 N   0  0  0  0  0  0  0  0  0  0  0  0
   -2.7000    7.0548   -0.0336 O   0  0  0  0  0  0  0  0  0  0  0  0
   -1.4050    7.0664   -0.2208 C   0  0  0  0  0  0  0  0  0  0  0  0
   -1.0624    5.7759   -0.3708 N   0  0  0  0  0  0  0  0  0  0  0  0
   -0.4955    8.2614   -0.2603 C   0  0  0  0  0  0  0  0  0  0  0  0
    0.6287    7.9284   -1.0281 F   0  0  0  0  0  0  0  0  0  0  0  0
   -1.1411    9.3143   -0.8282 F   0  0  0  0  0  0  0  0  0  0  0  0
   -0.0412    8.4919    1.0195 F   0  0  0  0  0  0  0  0  0  0  0  0
   -8.6880   -5.2373    0.2423 H   0  0  0  0  0  0  0  0  0  0  0  0
   -6.5604   -4.3624   -1.4994 H   0  0  0  0  0  0  0  0  0  0  0  0
   -6.1629   -4.7317    0.2114 H   0  0  0  0  0  0  0  0  0  0  0  0
   -5.6639   -1.7150    1.1681 H   0  0  0  0  0  0  0  0  0  0  0  0
   -5.0466   -3.3541    1.4805 H   0  0  0  0  0  0  0  0  0  0  0  0
   -3.5130   -1.0469    1.4169 H   0  0  0  0  0  0  0  0  0  0  0  0
   -2.8497   -2.6562    0.9224 H   0  0  0  0  0  0  0  0  0  0  0  0
   -4.3086   -0.7964   -0.9834 H   0  0  0  0  0  0  0  0  0  0  0  0
   -2.2342   -3.0248   -1.4464 H   0  0  0  0  0  0  0  0  0  0  0  0
   -3.3605   -2.3064   -2.6307 H   0  0  0  0  0  0  0  0  0  0  0  0
   -3.8801   -4.3501   -0.4560 H   0  0  0  0  0  0  0  0  0  0  0  0
   -4.6833   -4.0802   -2.0761 H   0  0  0  0  0  0  0  0  0  0  0  0
   -4.3878    1.0338   -0.2960 H   0  0  0  0  0  0  0  0  0  0  0  0
   -4.3493    3.4111   -0.1147 H   0  0  0  0  0  0  0  0  0  0  0  0
   -0.0890    3.3763   -0.6991 H   0  0  0  0  0  0  0  0  0  0  0  0
    1.5971    1.8046   -1.8407 H   0  0  0  0  0  0  0  0  0  0  0  0
    2.0229    0.1334   -1.3000 H   0  0  0  0  0  0  0  0  0  0  0  0
    3.1300    1.8279    0.0300 H   0  0  0  0  0  0  0  0  0  0  0  0
    1.5347    2.5012    0.5665 H   0  0  0  0  0  0  0  0  0  0  0  0
    1.4935   -2.0227    0.2234 H   0  0  0  0  0  0  0  0  0  0  0  0
    2.8876   -3.9429   -0.3867 H   0  0  0  0  0  0  0  0  0  0  0  0
    7.3435    0.3173    1.8656 H   0  0  0  0  0  0  0  0  0  0  0  0
    9.1190    1.4841    0.5817 H   0  0  0  0  0  0  0  0  0  0  0  0
    9.7680   -2.0043   -1.7239 H   0  0  0  0  0  0  0  0  0  0  0  0
    7.9880   -3.1791   -0.4439 H   0  0  0  0  0  0  0  0  0  0  0  0
    4.8284   -0.1859    2.0577 H   0  0  0  0  0  0  0  0  0  0  0  0
  1  2  1  0
  2  3  2  0
  2  4  1  0
  4  5  1  0
  5  6  1  0
  6  7  1  0
  7  8  1  0
  8  9  1  0
  9 10  1  0
  8 11  1  0
 11 12  1  0
 12 13  2  0
 13 14  1  0
 14 15  2  0
 15 16  1  0
 16 17  2  0
 17 18  1  0
 18 19  1  0
 19 20  1  0
 20 21  1  0
 21 22  1  0
 22 23  2  0
 23 24  1  0
 24 25  2  0
 25 26  1  0
 26 27  1  0
 27 28  1  0
 28 29  2  0
 29 30  1  0
 30 31  2  0
 31 32  1  0
 31 33  1  0
 33 34  2  0
 26 35  2  0
 15 36  1  0
 36 37  2  0
 37 38  1  0
 38 39  1  0
 39 40  2  0
 39 41  1  0
 41 42  1  0
 41 43  1  0
 41 44  1  0
 10  5  1  0
 17 12  1  0
 35 22  1  0
 40 36  1  0
 34 28  1  0
  1 45  1  0
  4 46  1  0
  4 47  1  0
  6 48  1  0
  6 49  1  0
  7 50  1  0
  7 51  1  0
  8 52  1  0
  9 53  1  0
  9 54  1  0
 10 55  1  0
 10 56  1  0
 13 57  1  0
 14 58  1  0
 16 59  1  0
 19 60  1  0
 19 61  1  0
 20 62  1  0
 20 63  1  0
 23 64  1  0
 24 65  1  0
 29 66  1  0
 30 67  1  0
 33 68  1  0
 34 69  1  0
 35 70  1  0
M  END
$$$$
[H]c1c(C(=O)N([H])[C@@]2([H])C([H])([H])[C@@]3([H])C(=O)c4c(c(C([H])([H])[H])nn4C([H])(C([H])([H])[H])C([H])([H])[H])[C@@]2([H])C3([H])[H])c(OC([H])([H])[H])c([H])c2c1C(=O)OC2([H])[H]
     RDKit          2D

 56 60  0  0  0  0  0  0  0  0999 V2000
    5.0494    1.5745    0.0000 C   0  0  0  0  0  0  0  0  0  0  0  0
    4.2994    2.8735    0.0000 O   0  0  0  0  0  0  0  0  0  0  0  0
    5.0494    4.1725    0.0000 C   0  0  0  0  0  0  0  0  0  0  0  0
    6.5494    4.1725    0.0000 C   0  0  0  0  0  0  0  0  0  0  0  0
    7.2994    5.4716    0.0000 C   0  0  0  0  0  0  0  0  0  0  0  0
    8.7666    5.7834    0.0000 C   0  0  0  0  0  0  0  0  0  0  0  0
    8.9234    7.2752    0.0000 O   0  0  0  0  0  0  0  0  0  0  0  0
    7.5531    7.8853    0.0000 C   0  0  0  0  0  0  0  0  0  0  0  0
    7.2412    9.3525    0.0000 O   0  0  0  0  0  0  0  0  0  0  0  0
    6.5494    6.7706    0.0000 C   0  0  0  0  0  0  0  0  0  0  0  0
    5.0494    6.7706    0.0000 C   0  0  0  0  0  0  0  0  0  0  0  0
    4.2994    5.4716    0.0000 C   0  0  0  0  0  0  0  0  0  0  0  0
    2.7994    5.4716    0.0000 C   0  0  0  0  0  0  0  0  0  0  0  0
    2.0494    6.7706    0.0000 O   0  0  0  0  0  0  0  0  0  0  0  0
    2.0494    4.1725    0.0000 N   0  0  0  0  0  0  0  0  0  0  0  0
    0.5494    4.1725    0.0000 C   0  0  0  0  0  0  0  0  0  0  0  0
   -0.9178    4.4844    0.0000 C   0  0  0  0  0  0  0  0  0  0  0  0
   -1.8351    3.2209    0.0000 C   0  0  0  0  0  0  0  0  0  0  0  0
   -0.4086    3.6844    0.0000 C   0  0  0  0  0  0  0  0  0  0  0  0
    0.7062    2.6807    0.0000 C   0  0  0  0  0  0  0  0  0  0  0  0
    0.3943    1.2135    0.0000 C   0  0  0  0  0  0  0  0  0  0  0  0
    1.2760    0.0000    0.0000 C   0  0  0  0  0  0  0  0  0  0  0  0
    2.7760    0.0000    0.0000 C   0  0  0  0  0  0  0  0  0  0  0  0
    0.3943   -1.2135    0.0000 N   0  0  0  0  0  0  0  0  0  0  0  0
   -1.0323   -0.7500    0.0000 N   0  0  0  0  0  0  0  0  0  0  0  0
   -2.2458   -1.6317    0.0000 C   0  0  0  0  0  0  0  0  0  0  0  0
   -3.1275   -0.4182    0.0000 C   0  0  0  0  0  0  0  0  0  0  0  0
   -1.3641   -2.8452    0.0000 C   0  0  0  0  0  0  0  0  0  0  0  0
   -1.0323    0.7500    0.0000 C   0  0  0  0  0  0  0  0  0  0  0  0
   -2.1470    1.7537    0.0000 C   0  0  0  0  0  0  0  0  0  0  0  0
   -3.6195    1.4675    0.0000 O   0  0  0  0  0  0  0  0  0  0  0  0
    5.7994    0.2754    0.0000 H   0  0  0  0  0  0  0  0  0  0  0  0
    3.7503    0.8245    0.0000 H   0  0  0  0  0  0  0  0  0  0  0  0
    6.3484    2.3245    0.0000 H   0  0  0  0  0  0  0  0  0  0  0  0
    7.2994    2.8735    0.0000 H   0  0  0  0  0  0  0  0  0  0  0  0
    8.9234    4.2917    0.0000 H   0  0  0  0  0  0  0  0  0  0  0  0
   10.2666    5.7834    0.0000 H   0  0  0  0  0  0  0  0  0  0  0  0
    4.2994    8.0696    0.0000 H   0  0  0  0  0  0  0  0  0  0  0  0
    2.9521    2.9746    0.0000 H   0  0  0  0  0  0  0  0  0  0  0  0
    0.7062    5.6643    0.0000 H   0  0  0  0  0  0  0  0  0  0  0  0
   -0.4543    5.9110    0.0000 H   0  0  0  0  0  0  0  0  0  0  0  0
   -2.2882    5.0945    0.0000 H   0  0  0  0  0  0  0  0  0  0  0  0
   -2.9499    4.2246    0.0000 H   0  0  0  0  0  0  0  0  0  0  0  0
    0.0822    4.3126    0.0000 H   0  0  0  0  0  0  0  0  0  0  0  0
   -0.7714    5.1399    0.0000 H   0  0  0  0  0  0  0  0  0  0  0  0
    2.1786    2.9669    0.0000 H   0  0  0  0  0  0  0  0  0  0  0  0
    4.2760    0.0000    0.0000 H   0  0  0  0  0  0  0  0  0  0  0  0
    2.7760   -1.5000    0.0000 H   0  0  0  0  0  0  0  0  0  0  0  0
    2.7760    1.5000    0.0000 H   0  0  0  0  0  0  0  0  0  0  0  0
   -3.4593   -2.5134    0.0000 H   0  0  0  0  0  0  0  0  0  0  0  0
   -4.1505    0.6789    0.0000 H   0  0  0  0  0  0  0  0  0  0  0  0
   -4.3410   -1.2998    0.0000 H   0  0  0  0  0  0  0  0  0  0  0  0
   -1.9140    0.4635    0.0000 H   0  0  0  0  0  0  0  0  0  0  0  0
   -0.4825   -4.0587    0.0000 H   0  0  0  0  0  0  0  0  0  0  0  0
   -2.5777   -3.7269    0.0000 H   0  0  0  0  0  0  0  0  0  0  0  0
   -0.1506   -1.9635    0.0000 H   0  0  0  0  0  0  0  0  0  0  0  0
  1  2  1  0
  2  3  1  0
  3  4  2  0
  4  5  1  0
  5  6  1  0
  6  7  1  0
  7  8  1  0
  8  9  2  0
  8 10  1  0
 10 11  1  0
 11 12  2  0
 12 13  1  0
 13 14  2  0
 13 15  1  0
 15 16  1  0
 16 17  1  0
 17 18  1  0
 18 19  1  0
 19 20  1  0
 20 21  1  0
 21 22  1  0
 22 23  1  0
 22 24  2  0
 24 25  1  0
 25 26  1  0
 26 27  1  0
 26 28  1  0
 25 29  1  0
 29 30  1  0
 30 31  2  0
 12  3  1  0
 20 16  1  0
 29 21  2  0
 10  5  2  0
 30 18  1  0
  1 32  1  0
  1 33  1  0
  1 34  1  0
  4 35  1  0
  6 36  1  0
  6 37  1  0
 11 38  1  0
 15 39  1  0
 16 40  1  1
 17 41  1  0
 17 42  1  0
 18 43  1  1
 19 44  1  0
 19 45  1  0
 20 46  1  6
 23 47  1  0
 23 48  1  0
 23 49  1  0
 26 50  1  0
 27 51  1  0
 27 52  1  0
 27 53  1  0
 28 54  1  0
 28 55  1  0
 28 56  1  0
M  END
$$$$
[H]Oc1c([H])c([H])c2c(-c3c([H])c([H])c(Cl)c([H])c3[H])c(C([H])(C(=O)OC([H])(C([H])([H])[H])C([H])([H])[H])c3c([H])c([H])c([H])c([H])c3[H])oc2c1[H]
     RDKit          3D

 51 54  0  0  0  0  0  0  0  0999 V2000
    4.8595   -0.8622    0.3196 C   0  0  0  0  0  0  0  0  0  0  0  0
    3.5537   -1.1305    1.0343 C   0  0  0  0  0  0  0  0  0  0  0  0
    3.2914   -2.6117    1.1040 C   0  0  0  0  0  0  0  0  0  0  0  0
    2.4707   -0.4350    0.4833 O   0  0  0  0  0  0  0  0  0  0  0  0
    1.7176    0.5377    1.1219 C   0  0  0  0  0  0  0  0  0  0  0  0
    2.0508    0.8102    2.3019 O   0  0  0  0  0  0  0  0  0  0  0  0
    0.5779    1.2111    0.4345 C   0  0  0  0  0  0  0  0  0  0  0  0
    0.9797    2.0228   -0.7311 C   0  0  0  0  0  0  0  0  0  0  0  0
    2.2259    2.0198   -1.3015 C   0  0  0  0  0  0  0  0  0  0  0  0
    2.5264    2.8068   -2.4144 C   0  0  0  0  0  0  0  0  0  0  0  0
    1.5562    3.6099   -2.9609 C   0  0  0  0  0  0  0  0  0  0  0  0
    0.3154    3.6268   -2.4094 C   0  0  0  0  0  0  0  0  0  0  0  0
    0.0311    2.8439   -1.3098 C   0  0  0  0  0  0  0  0  0  0  0  0
   -0.2982    0.1039   -0.0949 C   0  0  0  0  0  0  0  0  0  0  0  0
    0.0911   -0.7084   -1.0580 O   0  0  0  0  0  0  0  0  0  0  0  0
   -0.8475   -1.5763   -1.3342 C   0  0  0  0  0  0  0  0  0  0  0  0
   -0.9143   -2.6001   -2.2385 C   0  0  0  0  0  0  0  0  0  0  0  0
   -2.0498   -3.3822   -2.3259 C   0  0  0  0  0  0  0  0  0  0  0  0
   -2.0917   -4.4085   -3.2462 O   0  0  0  0  0  0  0  0  0  0  0  0
   -3.1178   -3.1279   -1.4982 C   0  0  0  0  0  0  0  0  0  0  0  0
   -3.0398   -2.0765   -0.5751 C   0  0  0  0  0  0  0  0  0  0  0  0
   -1.9102   -1.2973   -0.4867 C   0  0  0  0  0  0  0  0  0  0  0  0
   -1.5637   -0.2247    0.3071 C   0  0  0  0  0  0  0  0  0  0  0  0
   -2.3264    0.4363    1.3471 C   0  0  0  0  0  0  0  0  0  0  0  0
   -2.9809    1.6403    1.1866 C   0  0  0  0  0  0  0  0  0  0  0  0
   -3.7007    2.2375    2.1960 C   0  0  0  0  0  0  0  0  0  0  0  0
   -3.7951    1.6374    3.4348 C   0  0  0  0  0  0  0  0  0  0  0  0
   -4.7264    2.4151    4.7253 Cl  0  0  0  0  0  0  0  0  0  0  0  0
   -3.1597    0.4435    3.6323 C   0  0  0  0  0  0  0  0  0  0  0  0
   -2.4461   -0.1342    2.6079 C   0  0  0  0  0  0  0  0  0  0  0  0
    5.5950   -1.6325    0.6455 H   0  0  0  0  0  0  0  0  0  0  0  0
    5.2326    0.1225    0.6898 H   0  0  0  0  0  0  0  0  0  0  0  0
    4.7869   -0.8397   -0.7685 H   0  0  0  0  0  0  0  0  0  0  0  0
    3.6771   -0.7448    2.0853 H   0  0  0  0  0  0  0  0  0  0  0  0
    2.1957   -2.7918    1.0315 H   0  0  0  0  0  0  0  0  0  0  0  0
    3.6430   -2.9933    2.0839 H   0  0  0  0  0  0  0  0  0  0  0  0
    3.8014   -3.1557    0.2651 H   0  0  0  0  0  0  0  0  0  0  0  0
    0.0157    1.8656    1.1112 H   0  0  0  0  0  0  0  0  0  0  0  0
    3.0125    1.4260   -0.9213 H   0  0  0  0  0  0  0  0  0  0  0  0
    3.5049    2.7743   -2.8279 H   0  0  0  0  0  0  0  0  0  0  0  0
    1.8557    4.2041   -3.8360 H   0  0  0  0  0  0  0  0  0  0  0  0
   -0.4460    4.2618   -2.8444 H   0  0  0  0  0  0  0  0  0  0  0  0
   -0.9678    2.8945   -0.9124 H   0  0  0  0  0  0  0  0  0  0  0  0
   -0.0980   -2.8148   -2.8904 H   0  0  0  0  0  0  0  0  0  0  0  0
   -2.8691   -5.0260   -3.3814 H   0  0  0  0  0  0  0  0  0  0  0  0
   -3.9892   -3.7403   -1.5750 H   0  0  0  0  0  0  0  0  0  0  0  0
   -3.8749   -1.8772    0.0712 H   0  0  0  0  0  0  0  0  0  0  0  0
   -2.9379    2.1486    0.2369 H   0  0  0  0  0  0  0  0  0  0  0  0
   -4.2172    3.1862    2.0768 H   0  0  0  0  0  0  0  0  0  0  0  0
   -3.2518   -0.0051    4.6144 H   0  0  0  0  0  0  0  0  0  0  0  0
   -1.9480   -1.0902    2.7939 H   0  0  0  0  0  0  0  0  0  0  0  0
  1  2  1  0
  2  3  1  0
  2  4  1  0
  4  5  1  0
  5  6  2  0
  5  7  1  0
  7  8  1  0
  8  9  2  0
  9 10  1  0
 10 11  2  0
 11 12  1  0
 12 13  2  0
  7 14  1  0
 14 15  1  0
 15 16  1  0
 16 17  2  0
 17 18  1  0
 18 19  1  0
 18 20  2  0
 20 21  1  0
 21 22  2  0
 22 23  1  0
 23 24  1  0
 24 25  2  0
 25 26  1  0
 26 27  2  0
 27 28  1  0
 27 29  1  0
 29 30  2  0
 13  8  1  0
 23 14  2  0
 30 24  1  0
 22 16  1  0
  1 31  1  0
  1 32  1  0
  1 33  1  0
  2 34  1  0
  3 35  1  0
  3 36  1  0
  3 37  1  0
  7 38  1  0
  9 39  1  0
 10 40  1  0
 11 41  1  0
 12 42  1  0
 13 43  1  0
 17 44  1  0
 19 45  1  0
 20 46  1  0
 21 47  1  0
 25 48  1  0
 26 49  1  0
 29 50  1  0
 30 51  1  0
M  END
$$$$
[H]c1nc([H])c(F)c(C(=O)N2C([H])([H])C([H])([H])N(c3sc(S(=O)(=O)C([H])([H])[H])nc3C(=O)N([H])c3c([H])c([H])c(C(F)(F)F)c([H])c3[H])C([H])([H])C2([H])[H])n1
     RDKit          3D

 55 58  0  0  0  0  0  0  0  0999 V2000
    6.3542    5.0131   -1.6631 F   0  0  0  0  0  0  0  0  0  0  0  0
    5.9097    4.8352   -0.3817 C   0  0  0  0  0  0  0  0  0  0  0  0
    7.0419    4.7317    0.4352 F   0  0  0  0  0  0  0  0  0  0  0  0
    5.1991    5.9600   -0.0058 F   0  0  0  0  0  0  0  0  0  0  0  0
    5.0867    3.5926   -0.2681 C   0  0  0  0  0  0  0  0  0  0  0  0
    4.2714    3.4442    0.8456 C   0  0  0  0  0  0  0  0  0  0  0  0
    3.4881    2.3353    1.0118 C   0  0  0  0  0  0  0  0  0  0  0  0
    3.4577    1.2879    0.0778 C   0  0  0  0  0  0  0  0  0  0  0  0
    2.6620    0.1580    0.3053 N   0  0  0  0  0  0  0  0  0  0  0  0
    2.1521   -0.7003   -0.6817 C   0  0  0  0  0  0  0  0  0  0  0  0
    2.3748   -0.4901   -1.8854 O   0  0  0  0  0  0  0  0  0  0  0  0
    1.3220   -1.8852   -0.2659 C   0  0  0  0  0  0  0  0  0  0  0  0
    1.8290   -2.9236    0.2803 N   0  0  0  0  0  0  0  0  0  0  0  0
    1.0770   -3.9241    0.6897 C   0  0  0  0  0  0  0  0  0  0  0  0
   -0.5037   -3.3598    0.2647 S   0  0  0  0  0  0  0  0  0  0  0  0
   -0.0448   -1.8360   -0.4206 C   0  0  0  0  0  0  0  0  0  0  0  0
   -0.8586   -0.8199   -0.9748 N   0  0  0  0  0  0  0  0  0  0  0  0
   -1.4963   -0.9974   -2.2522 C   0  0  0  0  0  0  0  0  0  0  0  0
   -3.0131   -0.8727   -2.0809 C   0  0  0  0  0  0  0  0  0  0  0  0
   -3.3245    0.1802   -1.0809 N   0  0  0  0  0  0  0  0  0  0  0  0
   -2.3022    1.1401   -0.7732 C   0  0  0  0  0  0  0  0  0  0  0  0
   -1.0561    0.4066   -0.2282 C   0  0  0  0  0  0  0  0  0  0  0  0
   -4.5732    0.1233   -0.4833 C   0  0  0  0  0  0  0  0  0  0  0  0
   -5.2980   -0.8967   -0.8372 O   0  0  0  0  0  0  0  0  0  0  0  0
   -5.2108    1.0106    0.4668 C   0  0  0  0  0  0  0  0  0  0  0  0
   -4.6584    2.1503    0.9368 N   0  0  0  0  0  0  0  0  0  0  0  0
   -5.2774    2.9715    1.7938 C   0  0  0  0  0  0  0  0  0  0  0  0
   -6.5006    2.6569    2.2170 N   0  0  0  0  0  0  0  0  0  0  0  0
   -7.1662    1.5412    1.8253 C   0  0  0  0  0  0  0  0  0  0  0  0
   -6.4783    0.7199    0.9302 C   0  0  0  0  0  0  0  0  0  0  0  0
   -7.0943   -0.4141    0.5127 F   0  0  0  0  0  0  0  0  0  0  0  0
    1.5294   -5.4457    1.4485 S   0  0  0  0  0  0  0  0  0  0  0  0
    1.7914   -6.6966    0.2059 C   0  0  0  0  0  0  0  0  0  0  0  0
    2.7778   -5.2606    2.2383 O   0  0  0  0  0  0  0  0  0  0  0  0
    0.3651   -5.8698    2.2971 O   0  0  0  0  0  0  0  0  0  0  0  0
    4.2767    1.4483   -1.0275 C   0  0  0  0  0  0  0  0  0  0  0  0
    5.0740    2.5836   -1.1911 C   0  0  0  0  0  0  0  0  0  0  0  0
    4.2638    4.2412    1.5837 H   0  0  0  0  0  0  0  0  0  0  0  0
    2.8444    2.1929    1.8657 H   0  0  0  0  0  0  0  0  0  0  0  0
    2.4187   -0.0583    1.3183 H   0  0  0  0  0  0  0  0  0  0  0  0
   -1.3066   -1.9598   -2.7389 H   0  0  0  0  0  0  0  0  0  0  0  0
   -1.1295   -0.1976   -2.9327 H   0  0  0  0  0  0  0  0  0  0  0  0
   -3.4358   -0.6162   -3.0523 H   0  0  0  0  0  0  0  0  0  0  0  0
   -3.3756   -1.8588   -1.7665 H   0  0  0  0  0  0  0  0  0  0  0  0
   -2.5760    1.8439   -0.0103 H   0  0  0  0  0  0  0  0  0  0  0  0
   -2.0097    1.7302   -1.6824 H   0  0  0  0  0  0  0  0  0  0  0  0
   -0.2241    1.1054   -0.3456 H   0  0  0  0  0  0  0  0  0  0  0  0
   -1.2274    0.1911    0.8414 H   0  0  0  0  0  0  0  0  0  0  0  0
   -4.8004    3.8597    2.1333 H   0  0  0  0  0  0  0  0  0  0  0  0
   -8.1643    1.2823    2.1712 H   0  0  0  0  0  0  0  0  0  0  0  0
    0.8611   -6.8749   -0.3973 H   0  0  0  0  0  0  0  0  0  0  0  0
    2.6858   -6.5189   -0.4190 H   0  0  0  0  0  0  0  0  0  0  0  0
    1.9131   -7.6709    0.7708 H   0  0  0  0  0  0  0  0  0  0  0  0
    4.3689    0.7270   -1.8062 H   0  0  0  0  0  0  0  0  0  0  0  0
    5.7101    2.6838   -2.0817 H   0  0  0  0  0  0  0  0  0  0  0  0
  1  2  1  0
  2  3  1  0
  2  4  1  0
  2  5  1  0
  5  6  2  0
  6  7  1  0
  7  8  2  0
  8  9  1  0
  9 10  1  0
 10 11  2  0
 10 12  1  0
 12 13  1  0
 13 14  2  0
 14 15  1  0
 15 16  1  0
 16 17  1  0
 17 18  1  0
 18 19  1  0
 19 20  1  0
 20 21  1  0
 21 22  1  0
 20 23  1  0
 23 24  2  0
 23 25  1  0
 25 26  2  0
 26 27  1  0
 27 28  2  0
 28 29  1  0
 29 30  2  0
 30 31  1  0
 14 32  1  0
 32 33  1  0
 32 34  2  0
 32 35  2  0
  8 36  1  0
 36 37  2  0
 37  5  1  0
 16 12  2  0
 22 17  1  0
 30 25  1  0
  6 38  1  0
  7 39  1  0
  9 40  1  0
 18 41  1  0
 18 42  1  0
 19 43  1  0
 19 44  1  0
 21 45  1  0
 21 46  1  0
 22 47  1  0
 22 48  1  0
 27 49  1  0
 29 50  1  0
 33 51  1  0
 33 52  1  0
 33 53  1  0
 36 54  1  0
 37 55  1  0
M  END
$$$$
[H]O[C@@]1([H])C([H])([H])C([H])([H])C([H])([H])[C@]([H])(c2nc([H])c([H])n2[H])C1([H])[H]
     RDKit          3D

 26 27  0  0  0  0  0  0  0  0999 V2000
   -2.2016    1.0487    1.8901 O   0  0  0  0  0  0  0  0  0  0  0  0
   -1.9896   -0.1909    1.3332 C   0  0  1  0  0  0  0  0  0  0  0  0
   -2.5592   -0.3458   -0.0442 C   0  0  0  0  0  0  0  0  0  0  0  0
   -1.8287    0.5246   -1.0553 C   0  0  0  0  0  0  0  0  0  0  0  0
   -0.3667    0.1370   -1.0767 C   0  0  0  0  0  0  0  0  0  0  0  0
    0.1688    0.3913    0.3272 C   0  0  1  0  0  0  0  0  0  0  0  0
   -0.5271   -0.5504    1.2919 C   0  0  0  0  0  0  0  0  0  0  0  0
    1.6340    0.2192    0.3892 C   0  0  0  0  0  0  0  0  0  0  0  0
    2.5349    1.1485    0.7232 N   0  0  0  0  0  0  0  0  0  0  0  0
    3.7719    0.6582    0.6769 C   0  0  0  0  0  0  0  0  0  0  0  0
    3.6622   -0.6670    0.2897 C   0  0  0  0  0  0  0  0  0  0  0  0
    2.3470   -0.8975    0.1240 N   0  0  0  0  0  0  0  0  0  0  0  0
   -2.4055    1.7652    1.2658 H   0  0  0  0  0  0  0  0  0  0  0  0
   -2.4893   -0.9431    1.9837 H   0  0  0  0  0  0  0  0  0  0  0  0
   -2.3689   -1.4006   -0.3598 H   0  0  0  0  0  0  0  0  0  0  0  0
   -3.6409   -0.1726   -0.1116 H   0  0  0  0  0  0  0  0  0  0  0  0
   -1.8710    1.5897   -0.7553 H   0  0  0  0  0  0  0  0  0  0  0  0
   -2.3130    0.4320   -2.0334 H   0  0  0  0  0  0  0  0  0  0  0  0
   -0.2078   -0.9012   -1.3800 H   0  0  0  0  0  0  0  0  0  0  0  0
    0.1485    0.8368   -1.7587 H   0  0  0  0  0  0  0  0  0  0  0  0
   -0.0958    1.4184    0.6008 H   0  0  0  0  0  0  0  0  0  0  0  0
   -0.0560   -0.4683    2.2893 H   0  0  0  0  0  0  0  0  0  0  0  0
   -0.4401   -1.5789    0.9032 H   0  0  0  0  0  0  0  0  0  0  0  0
    4.7334    1.1290    0.8844 H   0  0  0  0  0  0  0  0  0  0  0  0
    4.4560   -1.3864    0.1442 H   0  0  0  0  0  0  0  0  0  0  0  0
    1.9045   -1.7961   -0.1664 H   0  0  0  0  0  0  0  0  0  0  0  0
  1  2  1  0
  2  3  1  0
  3  4  1  0
  4  5  1  0
  5  6  1  0
  6  7  1  0
  6  8  1  0
  8  9  2  0
  9 10  1  0
 10 11  2  0
 11 12  1  0
  7  2  1  0
 12  8  1  0
  1 13  1  0
  2 14  1  1
  3 15  1  0
  3 16  1  0
  4 17  1  0
  4 18  1  0
  5 19  1  0
  5 20  1  0
  6 21  1  1
  7 22  1  0
  7 23  1  0
 10 24  1  0
 11 25  1  0
 12 26  1  0
M  END
$$$$
[H]c1c(OS(=O)(=O)C2([H])C([H])([H])C2([H])[H])c([H])c2c(C3([H])C([H])([H])N(C([H])([H])[H])C3([H])[H])c([H])n([H])c2c1[H]
     RDKit          3D

 39 42  0  0  0  0  0  0  0  0999 V2000
   -5.0772    2.0022    0.1926 C   0  0  0  0  0  0  0  0  0  0  0  0
   -3.8031    1.7489   -0.4465 N   0  0  0  0  0  0  0  0  0  0  0  0
   -3.7986    0.4343   -1.0647 C   0  0  0  0  0  0  0  0  0  0  0  0
   -2.3335    0.3402   -0.6931 C   0  0  0  0  0  0  0  0  0  0  0  0
   -2.7653    1.2611    0.4452 C   0  0  0  0  0  0  0  0  0  0  0  0
   -1.9095   -0.9977   -0.2663 C   0  0  0  0  0  0  0  0  0  0  0  0
   -2.6066   -2.1760   -0.1457 C   0  0  0  0  0  0  0  0  0  0  0  0
   -1.7972   -3.1539    0.2853 N   0  0  0  0  0  0  0  0  0  0  0  0
   -0.5468   -2.6410    0.4587 C   0  0  0  0  0  0  0  0  0  0  0  0
    0.6390   -3.1766    0.8719 C   0  0  0  0  0  0  0  0  0  0  0  0
    1.7557   -2.3746    0.9431 C   0  0  0  0  0  0  0  0  0  0  0  0
    1.7365   -1.0365    0.6128 C   0  0  0  0  0  0  0  0  0  0  0  0
    2.9030   -0.3013    0.7121 O   0  0  0  0  0  0  0  0  0  0  0  0
    3.9066   -0.2298   -0.6566 S   0  0  0  0  0  0  0  0  0  0  0  0
    4.8425   -1.4120   -0.6592 O   0  0  0  0  0  0  0  0  0  0  0  0
    3.0253   -0.2824   -1.8821 O   0  0  0  0  0  0  0  0  0  0  0  0
    4.9077    1.2325   -0.6563 C   0  0  0  0  0  0  0  0  0  0  0  0
    4.2623    2.5489   -0.2722 C   0  0  0  0  0  0  0  0  0  0  0  0
    5.3259    1.8879    0.5830 C   0  0  0  0  0  0  0  0  0  0  0  0
    0.5307   -0.5093    0.1969 C   0  0  0  0  0  0  0  0  0  0  0  0
   -0.6022   -1.3013    0.1194 C   0  0  0  0  0  0  0  0  0  0  0  0
   -5.1840    3.0789    0.4216 H   0  0  0  0  0  0  0  0  0  0  0  0
   -5.8649    1.7354   -0.5446 H   0  0  0  0  0  0  0  0  0  0  0  0
   -5.1763    1.3853    1.1111 H   0  0  0  0  0  0  0  0  0  0  0  0
   -4.3634   -0.3264   -0.4736 H   0  0  0  0  0  0  0  0  0  0  0  0
   -3.9992    0.4317   -2.1531 H   0  0  0  0  0  0  0  0  0  0  0  0
   -1.6511    0.8763   -1.3846 H   0  0  0  0  0  0  0  0  0  0  0  0
   -1.9675    1.9960    0.6638 H   0  0  0  0  0  0  0  0  0  0  0  0
   -3.1642    0.7122    1.3238 H   0  0  0  0  0  0  0  0  0  0  0  0
   -3.6490   -2.3072   -0.3624 H   0  0  0  0  0  0  0  0  0  0  0  0
   -2.0015   -4.1586    0.4811 H   0  0  0  0  0  0  0  0  0  0  0  0
    0.6576   -4.2266    1.1319 H   0  0  0  0  0  0  0  0  0  0  0  0
    2.6754   -2.8190    1.2706 H   0  0  0  0  0  0  0  0  0  0  0  0
    5.5749    1.3094   -1.5374 H   0  0  0  0  0  0  0  0  0  0  0  0
    4.5152    3.4596   -0.8482 H   0  0  0  0  0  0  0  0  0  0  0  0
    3.2147    2.4349    0.0693 H   0  0  0  0  0  0  0  0  0  0  0  0
    4.9982    1.5612    1.5859 H   0  0  0  0  0  0  0  0  0  0  0  0
    6.2858    2.4483    0.6069 H   0  0  0  0  0  0  0  0  0  0  0  0
    0.5045    0.5450   -0.0660 H   0  0  0  0  0  0  0  0  0  0  0  0
  1  2  1  0
  2  3  1  0
  3  4  1  0
  4  5  1  0
  4  6  1  0
  6  7  2  0
  7  8  1  0
  8  9  1  0
  9 10  2  0
 10 11  1  0
 11 12  2  0
 12 13  1  0
 13 14  1  0
 14 15  2  0
 14 16  2  0
 14 17  1  0
 17 18  1  0
 18 19  1  0
 12 20  1  0
 20 21  2  0
  5  2  1  0
 21  6  1  0
 21  9  1  0
 19 17  1  0
  1 22  1  0
  1 23  1  0
  1 24  1  0
  3 25  1  0
  3 26  1  0
  4 27  1  0
  5 28  1  0
  5 29  1  0
  7 30  1  0
  8 31  1  0
 10 32  1  0
 11 33  1  0
 17 34  1  0
 18 35  1  0
 18 36  1  0
 19 37  1  0
 19 38  1  0
 20 39  1  0
M  END
$$$$
[H]c1c([H])c(C(=O)N([H])S(=O)(=O)c2c([H])c([H])c3sc(C(=O)N([H])c4c([H])c([H])c(S(=O)(=O)N([H])c5c([H])c([H])c(C(=O)N([H])[H])c([H])c5[H])c([H])c4F)c([H])c3c2[H])c([H])c(OC([H])([H])[H])c1OC([H])([H])[H]
     RDKit          3D

 73 77  0  0  0  0  0  0  0  0999 V2000
   13.0724   -0.6284   -2.6456 C   0  0  0  0  0  0  0  0  0  0  0  0
   12.6028    0.1726   -1.5984 O   0  0  0  0  0  0  0  0  0  0  0  0
   11.4081    0.0674   -0.9488 C   0  0  0  0  0  0  0  0  0  0  0  0
   10.4988   -0.9313   -1.3089 C   0  0  0  0  0  0  0  0  0  0  0  0
    9.2897   -1.0324   -0.6440 C   0  0  0  0  0  0  0  0  0  0  0  0
    8.9714   -0.1757    0.3553 C   0  0  0  0  0  0  0  0  0  0  0  0
    9.8958    0.8093    0.6928 C   0  0  0  0  0  0  0  0  0  0  0  0
   11.1034    0.9462    0.0608 C   0  0  0  0  0  0  0  0  0  0  0  0
   12.0152    1.9275    0.3976 O   0  0  0  0  0  0  0  0  0  0  0  0
   11.7568    2.8722    1.4326 C   0  0  0  0  0  0  0  0  0  0  0  0
    7.7157   -0.2835    1.0625 C   0  0  0  0  0  0  0  0  0  0  0  0
    7.5918    0.3846    2.1414 O   0  0  0  0  0  0  0  0  0  0  0  0
    6.6025   -1.0678    0.6676 N   0  0  0  0  0  0  0  0  0  0  0  0
    5.1658   -1.0832    1.6459 S   0  0  0  0  0  0  0  0  0  0  0  0
    5.5209   -0.6111    3.0149 O   0  0  0  0  0  0  0  0  0  0  0  0
    4.6815   -2.5119    1.7975 O   0  0  0  0  0  0  0  0  0  0  0  0
    3.8892   -0.0973    0.9598 C   0  0  0  0  0  0  0  0  0  0  0  0
    4.1683    1.2312    0.6996 C   0  0  0  0  0  0  0  0  0  0  0  0
    3.1436    2.0100    0.2329 C   0  0  0  0  0  0  0  0  0  0  0  0
    1.8566    1.4737    0.0270 C   0  0  0  0  0  0  0  0  0  0  0  0
    0.3591    2.1061   -0.4904 S   0  0  0  0  0  0  0  0  0  0  0  0
   -0.5921    0.6951   -0.3687 C   0  0  0  0  0  0  0  0  0  0  0  0
    0.2987   -0.2397    0.0744 C   0  0  0  0  0  0  0  0  0  0  0  0
    1.5704    0.1650    0.2799 C   0  0  0  0  0  0  0  0  0  0  0  0
    2.6461   -0.6158    0.7595 C   0  0  0  0  0  0  0  0  0  0  0  0
   -2.0495    0.5306   -0.6449 C   0  0  0  0  0  0  0  0  0  0  0  0
   -2.6317    1.5654   -1.0448 O   0  0  0  0  0  0  0  0  0  0  0  0
   -2.6561   -0.7038   -0.4448 N   0  0  0  0  0  0  0  0  0  0  0  0
   -4.0075   -1.0188   -0.6380 C   0  0  0  0  0  0  0  0  0  0  0  0
   -4.9479   -0.1984   -1.2119 C   0  0  0  0  0  0  0  0  0  0  0  0
   -6.2972   -0.5717   -1.3578 C   0  0  0  0  0  0  0  0  0  0  0  0
   -6.7305   -1.7968   -0.9222 C   0  0  0  0  0  0  0  0  0  0  0  0
   -5.8101   -2.6356   -0.3474 C   0  0  0  0  0  0  0  0  0  0  0  0
   -4.4948   -2.2608   -0.2100 C   0  0  0  0  0  0  0  0  0  0  0  0
   -3.5967   -3.1046    0.3644 F   0  0  0  0  0  0  0  0  0  0  0  0
   -8.4206   -2.3010   -1.0449 S   0  0  0  0  0  0  0  0  0  0  0  0
   -8.9934   -1.6791   -2.2689 O   0  0  0  0  0  0  0  0  0  0  0  0
   -8.4069   -3.7933   -1.1803 O   0  0  0  0  0  0  0  0  0  0  0  0
   -9.2566   -1.8325    0.3777 N   0  0  0  0  0  0  0  0  0  0  0  0
  -10.2510   -0.8307    0.3638 C   0  0  0  0  0  0  0  0  0  0  0  0
  -11.4024   -1.0522    1.0999 C   0  0  0  0  0  0  0  0  0  0  0  0
  -12.4044   -0.1027    1.1345 C   0  0  0  0  0  0  0  0  0  0  0  0
  -12.2403    1.0672    0.4245 C   0  0  0  0  0  0  0  0  0  0  0  0
  -11.0985    1.2700   -0.2978 C   0  0  0  0  0  0  0  0  0  0  0  0
  -10.1023    0.3410   -0.3393 C   0  0  0  0  0  0  0  0  0  0  0  0
  -13.2886    2.1047    0.4543 C   0  0  0  0  0  0  0  0  0  0  0  0
  -13.1667    3.2079   -0.4379 N   0  0  0  0  0  0  0  0  0  0  0  0
  -14.2331    1.9664    1.2576 O   0  0  0  0  0  0  0  0  0  0  0  0
   13.2940   -1.6633   -2.2952 H   0  0  0  0  0  0  0  0  0  0  0  0
   14.0492   -0.1822   -2.9637 H   0  0  0  0  0  0  0  0  0  0  0  0
   12.3291   -0.6481   -3.4772 H   0  0  0  0  0  0  0  0  0  0  0  0
   10.7023   -1.6388   -2.0923 H   0  0  0  0  0  0  0  0  0  0  0  0
    8.5919   -1.8197   -0.9404 H   0  0  0  0  0  0  0  0  0  0  0  0
    9.6344    1.4934    1.4881 H   0  0  0  0  0  0  0  0  0  0  0  0
   10.7035    3.2292    1.4351 H   0  0  0  0  0  0  0  0  0  0  0  0
   12.3831    3.7569    1.2219 H   0  0  0  0  0  0  0  0  0  0  0  0
   12.0633    2.4403    2.3961 H   0  0  0  0  0  0  0  0  0  0  0  0
    6.6903   -1.6179   -0.2131 H   0  0  0  0  0  0  0  0  0  0  0  0
    5.1375    1.6718    0.8451 H   0  0  0  0  0  0  0  0  0  0  0  0
    3.2385    3.0610   -0.0107 H   0  0  0  0  0  0  0  0  0  0  0  0
   -0.0673   -1.2800    0.2426 H   0  0  0  0  0  0  0  0  0  0  0  0
    2.5210   -1.6665    0.9860 H   0  0  0  0  0  0  0  0  0  0  0  0
   -2.0221   -1.4958   -0.1135 H   0  0  0  0  0  0  0  0  0  0  0  0
   -4.6551    0.7714   -1.5801 H   0  0  0  0  0  0  0  0  0  0  0  0
   -6.9978    0.1019   -1.8166 H   0  0  0  0  0  0  0  0  0  0  0  0
   -6.1572   -3.6070   -0.0033 H   0  0  0  0  0  0  0  0  0  0  0  0
   -9.0179   -2.3071    1.2724 H   0  0  0  0  0  0  0  0  0  0  0  0
  -11.5277   -1.9884    1.6697 H   0  0  0  0  0  0  0  0  0  0  0  0
  -13.2872   -0.3109    1.7199 H   0  0  0  0  0  0  0  0  0  0  0  0
  -10.9459    2.1825   -0.8614 H   0  0  0  0  0  0  0  0  0  0  0  0
   -9.1879    0.5160   -0.9249 H   0  0  0  0  0  0  0  0  0  0  0  0
  -12.3905    3.8850   -0.3031 H   0  0  0  0  0  0  0  0  0  0  0  0
  -13.8274    3.3624   -1.2185 H   0  0  0  0  0  0  0  0  0  0  0  0
  1  2  1  0
  2  3  1  0
  3  4  2  0
  4  5  1  0
  5  6  2  0
  6  7  1  0
  7  8  2  0
  8  9  1  0
  9 10  1  0
  6 11  1  0
 11 12  2  0
 11 13  1  0
 13 14  1  0
 14 15  2  0
 14 16  2  0
 14 17  1  0
 17 18  2  0
 18 19  1  0
 19 20  2  0
 20 21  1  0
 21 22  1  0
 22 23  2  0
 23 24  1  0
 24 25  2  0
 22 26  1  0
 26 27  2  0
 26 28  1  0
 28 29  1  0
 29 30  2  0
 30 31  1  0
 31 32  2  0
 32 33  1  0
 33 34  2  0
 34 35  1  0
 32 36  1  0
 36 37  2  0
 36 38  2  0
 36 39  1  0
 39 40  1  0
 40 41  2  0
 41 42  1  0
 42 43  2  0
 43 44  1  0
 44 45  2  0
 43 46  1  0
 46 47  1  0
 46 48  2  0
  8  3  1  0
 25 17  1  0
 34 29  1  0
 45 40  1  0
 24 20  1  0
  1 49  1  0
  1 50  1  0
  1 51  1  0
  4 52  1  0
  5 53  1  0
  7 54  1  0
 10 55  1  0
 10 56  1  0
 10 57  1  0
 13 58  1  0
 18 59  1  0
 19 60  1  0
 23 61  1  0
 25 62  1  0
 28 63  1  0
 30 64  1  0
 31 65  1  0
 33 66  1  0
 39 67  1  0
 41 68  1  0
 42 69  1  0
 44 70  1  0
 45 71  1  0
 47 72  1  0
 47 73  1  0
M  END
$$$$
[H]O[C@@]([H])(C([H])([H])N([H])C([H])([H])[H])[C@@]([H])(N(C(=O)c1sc([H])c([H])c1[H])C([H])([H])C([H])([H])C([H])([H])c1c([H])c([H])c(F)c([H])c1[H])C([H])([H])c1c([H])c([H])c2c(c1[H])OC([H])([H])O2
     RDKit          3D

 63 66  0  0  0  0  0  0  0  0999 V2000
   -2.4385   -0.8854   -3.1760 C   0  0  0  0  0  0  0  0  0  0  0  0
   -1.5464    0.2472   -3.0766 N   0  0  0  0  0  0  0  0  0  0  0  0
   -2.1397    1.3538   -2.3713 C   0  0  0  0  0  0  0  0  0  0  0  0
   -2.3624    1.0918   -0.8971 C   0  0  2  0  0  0  0  0  0  0  0  0
   -2.9785    2.1332   -0.2698 O   0  0  0  0  0  0  0  0  0  0  0  0
   -1.2022    0.5796   -0.1418 C   0  0  2  0  0  0  0  0  0  0  0  0
   -1.5886   -0.1997    1.0526 C   0  0  0  0  0  0  0  0  0  0  0  0
   -2.3978   -1.4152    0.8209 C   0  0  0  0  0  0  0  0  0  0  0  0
   -1.7694   -2.6343    0.5342 C   0  0  0  0  0  0  0  0  0  0  0  0
   -2.4952   -3.7872    0.3397 C   0  0  0  0  0  0  0  0  0  0  0  0
   -3.8701   -3.8001    0.4167 C   0  0  0  0  0  0  0  0  0  0  0  0
   -4.8331   -4.8142    0.2643 O   0  0  0  0  0  0  0  0  0  0  0  0
   -6.0636   -4.3057    0.7500 C   0  0  0  0  0  0  0  0  0  0  0  0
   -5.8667   -2.9008    0.7170 O   0  0  0  0  0  0  0  0  0  0  0  0
   -4.5024   -2.6056    0.6986 C   0  0  0  0  0  0  0  0  0  0  0  0
   -3.7698   -1.4545    0.8925 C   0  0  0  0  0  0  0  0  0  0  0  0
   -0.1245    1.5572    0.1174 N   0  0  0  0  0  0  0  0  0  0  0  0
    1.1226    1.3347   -0.6105 C   0  0  0  0  0  0  0  0  0  0  0  0
    2.0933    0.4636    0.1595 C   0  0  0  0  0  0  0  0  0  0  0  0
    3.3318    0.3349   -0.7371 C   0  0  0  0  0  0  0  0  0  0  0  0
    4.3750   -0.5007   -0.1128 C   0  0  0  0  0  0  0  0  0  0  0  0
    4.4367   -1.8639   -0.3079 C   0  0  0  0  0  0  0  0  0  0  0  0
    5.4039   -2.6401    0.2722 C   0  0  0  0  0  0  0  0  0  0  0  0
    6.3589   -2.0803    1.0794 C   0  0  0  0  0  0  0  0  0  0  0  0
    7.2910   -2.8907    1.6278 F   0  0  0  0  0  0  0  0  0  0  0  0
    6.3204   -0.7186    1.2914 C   0  0  0  0  0  0  0  0  0  0  0  0
    5.3417    0.0530    0.7020 C   0  0  0  0  0  0  0  0  0  0  0  0
   -0.2637    2.6166    1.0048 C   0  0  0  0  0  0  0  0  0  0  0  0
   -1.3951    2.7386    1.6616 O   0  0  0  0  0  0  0  0  0  0  0  0
    0.6501    3.6974    1.3855 C   0  0  0  0  0  0  0  0  0  0  0  0
    1.9181    4.0433    1.0531 C   0  0  0  0  0  0  0  0  0  0  0  0
    2.4576    5.1455    1.6057 C   0  0  0  0  0  0  0  0  0  0  0  0
    1.7033    5.8623    2.4748 C   0  0  0  0  0  0  0  0  0  0  0  0
    0.2536    4.9915    2.5099 S   0  0  0  0  0  0  0  0  0  0  0  0
   -2.5423   -1.2735   -4.1936 H   0  0  0  0  0  0  0  0  0  0  0  0
   -3.4546   -0.6332   -2.8031 H   0  0  0  0  0  0  0  0  0  0  0  0
   -1.9672   -1.7050   -2.5650 H   0  0  0  0  0  0  0  0  0  0  0  0
   -1.2359    0.5201   -4.0314 H   0  0  0  0  0  0  0  0  0  0  0  0
   -3.1656    1.5273   -2.8039 H   0  0  0  0  0  0  0  0  0  0  0  0
   -1.5618    2.2498   -2.5757 H   0  0  0  0  0  0  0  0  0  0  0  0
   -3.1367    0.2559   -0.9130 H   0  0  0  0  0  0  0  0  0  0  0  0
   -3.4848    2.7339   -0.8698 H   0  0  0  0  0  0  0  0  0  0  0  0
   -0.7181   -0.1826   -0.8519 H   0  0  0  0  0  0  0  0  0  0  0  0
   -0.6410   -0.5352    1.5516 H   0  0  0  0  0  0  0  0  0  0  0  0
   -2.0693    0.4475    1.8480 H   0  0  0  0  0  0  0  0  0  0  0  0
   -0.6841   -2.5985    0.4791 H   0  0  0  0  0  0  0  0  0  0  0  0
   -1.9983   -4.7194    0.1197 H   0  0  0  0  0  0  0  0  0  0  0  0
   -6.1949   -4.5963    1.8202 H   0  0  0  0  0  0  0  0  0  0  0  0
   -6.9260   -4.6225    0.1184 H   0  0  0  0  0  0  0  0  0  0  0  0
   -4.3099   -0.5522    1.1094 H   0  0  0  0  0  0  0  0  0  0  0  0
    0.8686    0.6600   -1.5160 H   0  0  0  0  0  0  0  0  0  0  0  0
    1.5371    2.2097   -1.1031 H   0  0  0  0  0  0  0  0  0  0  0  0
    2.3397    0.9041    1.1228 H   0  0  0  0  0  0  0  0  0  0  0  0
    1.6772   -0.5597    0.2366 H   0  0  0  0  0  0  0  0  0  0  0  0
    3.0459   -0.1493   -1.6911 H   0  0  0  0  0  0  0  0  0  0  0  0
    3.7042    1.3707   -0.8873 H   0  0  0  0  0  0  0  0  0  0  0  0
    3.6748   -2.3071   -0.9520 H   0  0  0  0  0  0  0  0  0  0  0  0
    5.4215   -3.7142    0.0959 H   0  0  0  0  0  0  0  0  0  0  0  0
    7.0740   -0.2979    1.9249 H   0  0  0  0  0  0  0  0  0  0  0  0
    5.3072    1.1186    0.8649 H   0  0  0  0  0  0  0  0  0  0  0  0
    2.5266    3.4367    0.3409 H   0  0  0  0  0  0  0  0  0  0  0  0
    3.4944    5.4897    1.3782 H   0  0  0  0  0  0  0  0  0  0  0  0
    1.9687    6.7749    3.0155 H   0  0  0  0  0  0  0  0  0  0  0  0
  1  2  1  0
  2  3  1  0
  3  4  1  0
  4  5  1  0
  4  6  1  0
  6  7  1  0
  7  8  1  0
  8  9  2  0
  9 10  1  0
 10 11  2  0
 11 12  1  0
 12 13  1  0
 13 14  1  0
 14 15  1  0
 15 16  2  0
  6 17  1  0
 17 18  1  0
 18 19  1  0
 19 20  1  0
 20 21  1  0
 21 22  2  0
 22 23  1  0
 23 24  2  0
 24 25  1  0
 24 26  1  0
 26 27  2  0
 17 28  1  0
 28 29  2  0
 28 30  1  0
 30 31  2  0
 31 32  1  0
 32 33  2  0
 33 34  1  0
 16  8  1  0
 27 21  1  0
 34 30  1  0
 15 11  1  0
  1 35  1  0
  1 36  1  0
  1 37  1  0
  2 38  1  0
  3 39  1  0
  3 40  1  0
  4 41  1  6
  5 42  1  0
  6 43  1  6
  7 44  1  0
  7 45  1  0
  9 46  1  0
 10 47  1  0
 13 48  1  0
 13 49  1  0
 16 50  1  0
 18 51  1  0
 18 52  1  0
 19 53  1  0
 19 54  1  0
 20 55  1  0
 20 56  1  0
 22 57  1  0
 23 58  1  0
 26 59  1  0
 27 60  1  0
 31 61  1  0
 32 62  1  0
 33 63  1  0
M  END
$$$$
[H]/C(C(=O)c1c([H])c([H])c(Cl)c([H])c1[H])=C(\[H])c1c(C([H])(C([H])([H])[H])C([H])([H])[H])c(C(F)(F)F)nn1-c1c([H])c([H])c(Cl)c([H])c1[H]
     RDKit          3D

 47 49  0  0  0  0  0  0  0  0999 V2000
   -0.3464   -3.3705    0.2317 C   0  0  0  0  0  0  0  0  0  0  0  0
   -1.5688   -2.9390   -0.5127 C   0  0  0  0  0  0  0  0  0  0  0  0
   -2.7686   -3.6348    0.1687 C   0  0  0  0  0  0  0  0  0  0  0  0
   -1.7822   -1.4735   -0.6036 C   0  0  0  0  0  0  0  0  0  0  0  0
   -2.6239   -0.8645   -1.5458 C   0  0  0  0  0  0  0  0  0  0  0  0
   -2.5884    0.4548   -1.2853 N   0  0  0  0  0  0  0  0  0  0  0  0
   -1.8144    0.7485   -0.2794 N   0  0  0  0  0  0  0  0  0  0  0  0
   -1.5870    2.0580    0.2929 C   0  0  0  0  0  0  0  0  0  0  0  0
   -0.8748    3.0434   -0.3426 C   0  0  0  0  0  0  0  0  0  0  0  0
   -0.6859    4.2777    0.2294 C   0  0  0  0  0  0  0  0  0  0  0  0
   -1.2075    4.5860    1.4811 C   0  0  0  0  0  0  0  0  0  0  0  0
   -0.9368    6.1763    2.1620 Cl  0  0  0  0  0  0  0  0  0  0  0  0
   -1.9252    3.6023    2.1282 C   0  0  0  0  0  0  0  0  0  0  0  0
   -2.1034    2.3741    1.5389 C   0  0  0  0  0  0  0  0  0  0  0  0
   -1.2939   -0.4433    0.1654 C   0  0  0  0  0  0  0  0  0  0  0  0
   -0.4207   -0.5107    1.3040 C   0  0  0  0  0  0  0  0  0  0  0  0
    0.8895   -0.3062    1.1533 C   0  0  0  0  0  0  0  0  0  0  0  0
    1.5540   -0.0231   -0.0836 C   0  0  0  0  0  0  0  0  0  0  0  0
    0.9078    0.0183   -1.1533 O   0  0  0  0  0  0  0  0  0  0  0  0
    2.9767    0.2228   -0.1500 C   0  0  0  0  0  0  0  0  0  0  0  0
    3.5874    0.4950   -1.3846 C   0  0  0  0  0  0  0  0  0  0  0  0
    4.9310    0.7403   -1.5132 C   0  0  0  0  0  0  0  0  0  0  0  0
    5.7529    0.7289   -0.4142 C   0  0  0  0  0  0  0  0  0  0  0  0
    7.4812    1.0425   -0.5497 Cl  0  0  0  0  0  0  0  0  0  0  0  0
    5.1945    0.4662    0.8172 C   0  0  0  0  0  0  0  0  0  0  0  0
    3.8321    0.2189    0.9390 C   0  0  0  0  0  0  0  0  0  0  0  0
   -3.4004   -1.4766   -2.6312 C   0  0  0  0  0  0  0  0  0  0  0  0
   -4.3317   -2.3261   -2.1584 F   0  0  0  0  0  0  0  0  0  0  0  0
   -4.0774   -0.4571   -3.3163 F   0  0  0  0  0  0  0  0  0  0  0  0
   -2.5778   -2.0510   -3.5946 F   0  0  0  0  0  0  0  0  0  0  0  0
   -0.4594   -3.1194    1.2995 H   0  0  0  0  0  0  0  0  0  0  0  0
    0.6028   -3.0453   -0.1856 H   0  0  0  0  0  0  0  0  0  0  0  0
   -0.4005   -4.5106    0.2374 H   0  0  0  0  0  0  0  0  0  0  0  0
   -1.5560   -3.3250   -1.5470 H   0  0  0  0  0  0  0  0  0  0  0  0
   -3.2415   -4.3809   -0.4960 H   0  0  0  0  0  0  0  0  0  0  0  0
   -3.5256   -2.9321    0.5078 H   0  0  0  0  0  0  0  0  0  0  0  0
   -2.3641   -4.2591    1.0218 H   0  0  0  0  0  0  0  0  0  0  0  0
   -0.4550    2.8389   -1.3117 H   0  0  0  0  0  0  0  0  0  0  0  0
   -0.1307    5.0486   -0.2639 H   0  0  0  0  0  0  0  0  0  0  0  0
   -2.3270    3.8550    3.1014 H   0  0  0  0  0  0  0  0  0  0  0  0
   -2.6643    1.6090    2.0415 H   0  0  0  0  0  0  0  0  0  0  0  0
   -0.7594   -0.7220    2.3130 H   0  0  0  0  0  0  0  0  0  0  0  0
    1.5298   -0.3599    2.0638 H   0  0  0  0  0  0  0  0  0  0  0  0
    2.9150    0.4985   -2.2537 H   0  0  0  0  0  0  0  0  0  0  0  0
    5.3553    0.9471   -2.4881 H   0  0  0  0  0  0  0  0  0  0  0  0
    5.8546    0.4618    1.6779 H   0  0  0  0  0  0  0  0  0  0  0  0
    3.4339    0.0176    1.9143 H   0  0  0  0  0  0  0  0  0  0  0  0
  1  2  1  0
  2  3  1  0
  2  4  1  0
  4  5  1  0
  5  6  2  0
  6  7  1  0
  7  8  1  0
  8  9  2  0
  9 10  1  0
 10 11  2  0
 11 12  1  0
 11 13  1  0
 13 14  2  0
  7 15  1  0
 15 16  1  0
 16 17  2  0
 17 18  1  0
 18 19  2  0
 18 20  1  0
 20 21  2  0
 21 22  1  0
 22 23  2  0
 23 24  1  0
 23 25  1  0
 25 26  2  0
  5 27  1  0
 27 28  1  0
 27 29  1  0
 27 30  1  0
 15  4  2  0
 26 20  1  0
 14  8  1  0
  1 31  1  0
  1 32  1  0
  1 33  1  0
  2 34  1  0
  3 35  1  0
  3 36  1  0
  3 37  1  0
  9 38  1  0
 10 39  1  0
 13 40  1  0
 14 41  1  0
 16 42  1  0
 17 43  1  0
 21 44  1  0
 22 45  1  0
 25 46  1  0
 26 47  1  0
M  END
$$$$
[H]c1nc([H])c(N([H])[H])c(-c2c([H])c([H])c3c(N([H])[H])c([H])c([H])c([H])c3c2[H])c1[H]
     RDKit          3D

 31 33  0  0  0  0  0  0  0  0999 V2000
   -2.4911   -1.9766    1.3923 N   0  0  0  0  0  0  0  0  0  0  0  0
   -3.0290   -0.7845    0.8315 C   0  0  0  0  0  0  0  0  0  0  0  0
   -4.4034   -0.6223    0.7834 C   0  0  0  0  0  0  0  0  0  0  0  0
   -4.9473    0.4869    0.2602 N   0  0  0  0  0  0  0  0  0  0  0  0
   -4.1675    1.4467   -0.2199 C   0  0  0  0  0  0  0  0  0  0  0  0
   -2.7900    1.3811   -0.2183 C   0  0  0  0  0  0  0  0  0  0  0  0
   -2.2430    0.2166    0.3315 C   0  0  0  0  0  0  0  0  0  0  0  0
   -0.7921    0.1139    0.3521 C   0  0  0  0  0  0  0  0  0  0  0  0
   -0.0490   -0.2880    1.4228 C   0  0  0  0  0  0  0  0  0  0  0  0
    1.3444   -0.3704    1.3864 C   0  0  0  0  0  0  0  0  0  0  0  0
    2.0135   -0.0377    0.2352 C   0  0  0  0  0  0  0  0  0  0  0  0
    3.3895   -0.0907    0.1132 C   0  0  0  0  0  0  0  0  0  0  0  0
    4.1302   -0.5137    1.2485 N   0  0  0  0  0  0  0  0  0  0  0  0
    4.0390    0.2471   -1.0493 C   0  0  0  0  0  0  0  0  0  0  0  0
    3.3276    0.6597   -2.1586 C   0  0  0  0  0  0  0  0  0  0  0  0
    1.9565    0.7135   -2.0400 C   0  0  0  0  0  0  0  0  0  0  0  0
    1.2968    0.3742   -0.8709 C   0  0  0  0  0  0  0  0  0  0  0  0
   -0.0791    0.4462   -0.8067 C   0  0  0  0  0  0  0  0  0  0  0  0
   -2.3849   -2.1195    2.4137 H   0  0  0  0  0  0  0  0  0  0  0  0
   -2.2037   -2.7160    0.6845 H   0  0  0  0  0  0  0  0  0  0  0  0
   -5.0152   -1.4391    1.1908 H   0  0  0  0  0  0  0  0  0  0  0  0
   -4.6198    2.3362   -0.6391 H   0  0  0  0  0  0  0  0  0  0  0  0
   -2.1525    2.1674   -0.6116 H   0  0  0  0  0  0  0  0  0  0  0  0
   -0.5588   -0.5540    2.3430 H   0  0  0  0  0  0  0  0  0  0  0  0
    1.9189   -0.6909    2.2437 H   0  0  0  0  0  0  0  0  0  0  0  0
    4.1467    0.0809    2.1055 H   0  0  0  0  0  0  0  0  0  0  0  0
    4.6596   -1.4132    1.2376 H   0  0  0  0  0  0  0  0  0  0  0  0
    5.1214    0.2075   -1.1516 H   0  0  0  0  0  0  0  0  0  0  0  0
    3.8199    0.9331   -3.0925 H   0  0  0  0  0  0  0  0  0  0  0  0
    1.3696    1.0329   -2.8913 H   0  0  0  0  0  0  0  0  0  0  0  0
   -0.6073    0.7725   -1.6911 H   0  0  0  0  0  0  0  0  0  0  0  0
  1  2  1  0
  2  3  2  0
  3  4  1  0
  4  5  2  0
  5  6  1  0
  6  7  2  0
  7  8  1  0
  8  9  2  0
  9 10  1  0
 10 11  2  0
 11 12  1  0
 12 13  1  0
 12 14  2  0
 14 15  1  0
 15 16  2  0
 16 17  1  0
 17 18  2  0
  7  2  1  0
 18  8  1  0
 17 11  1  0
  1 19  1  0
  1 20  1  0
  3 21  1  0
  5 22  1  0
  6 23  1  0
  9 24  1  0
 10 25  1  0
 13 26  1  0
 13 27  1  0
 14 28  1  0
 15 29  1  0
 16 30  1  0
 18 31  1  0
M  END
$$$$
[H]c1nc([H])c([H])c(-c2nn3c(c2[H])N(C([H])([H])[H])c2c([H])c([H])c([H])c([H])c2S(=O)(=O)N([H])C(=O)C3([H])C([H])([H])C([H])(C([H])([H])[H])C([H])([H])[H])c1[H]
     RDKit          3D

 53 56  0  0  0  0  0  0  0  0999 V2000
    0.1971    2.1855    2.3001 C   0  0  0  0  0  0  0  0  0  0  0  0
    0.1598    1.9425    0.8321 N   0  0  0  0  0  0  0  0  0  0  0  0
   -0.3385    3.0646    0.0832 C   0  0  0  0  0  0  0  0  0  0  0  0
    0.1309    4.3524    0.5182 C   0  0  0  0  0  0  0  0  0  0  0  0
   -0.1816    5.5419   -0.0475 C   0  0  0  0  0  0  0  0  0  0  0  0
   -1.0217    5.5293   -1.1360 C   0  0  0  0  0  0  0  0  0  0  0  0
   -1.4923    4.3145   -1.5813 C   0  0  0  0  0  0  0  0  0  0  0  0
   -1.1610    3.0985   -0.9857 C   0  0  0  0  0  0  0  0  0  0  0  0
   -1.9701    1.7236   -1.7599 S   0  0  0  0  0  0  0  0  0  0  0  0
   -0.9641    0.8756   -2.4487 O   0  0  0  0  0  0  0  0  0  0  0  0
   -2.9349    2.1612   -2.8252 O   0  0  0  0  0  0  0  0  0  0  0  0
   -2.9273    0.9092   -0.5786 N   0  0  0  0  0  0  0  0  0  0  0  0
   -2.2121    0.0032    0.2573 C   0  0  0  0  0  0  0  0  0  0  0  0
   -2.4982   -0.0437    1.4919 O   0  0  0  0  0  0  0  0  0  0  0  0
   -1.1669   -0.8641   -0.2906 C   0  0  0  0  0  0  0  0  0  0  0  0
   -1.4349   -2.2227    0.4461 C   0  0  0  0  0  0  0  0  0  0  0  0
   -2.8097   -2.6906    0.1195 C   0  0  0  0  0  0  0  0  0  0  0  0
   -2.8754   -2.8735   -1.4024 C   0  0  0  0  0  0  0  0  0  0  0  0
   -2.9933   -4.0730    0.7088 C   0  0  0  0  0  0  0  0  0  0  0  0
    0.2008   -0.4329   -0.0191 N   0  0  0  0  0  0  0  0  0  0  0  0
    1.1848   -1.3683   -0.2052 N   0  0  0  0  0  0  0  0  0  0  0  0
    2.3434   -0.8820    0.1521 C   0  0  0  0  0  0  0  0  0  0  0  0
    2.1285    0.3730    0.5730 C   0  0  0  0  0  0  0  0  0  0  0  0
    0.7121    0.6624    0.4528 C   0  0  0  0  0  0  0  0  0  0  0  0
    3.6644   -1.5373    0.1259 C   0  0  0  0  0  0  0  0  0  0  0  0
    4.7980   -0.8814    0.5460 C   0  0  0  0  0  0  0  0  0  0  0  0
    6.0310   -1.5189    0.5137 C   0  0  0  0  0  0  0  0  0  0  0  0
    6.1419   -2.7839    0.0733 N   0  0  0  0  0  0  0  0  0  0  0  0
    5.0515   -3.4403   -0.3401 C   0  0  0  0  0  0  0  0  0  0  0  0
    3.7901   -2.8283   -0.3216 C   0  0  0  0  0  0  0  0  0  0  0  0
    1.2572    1.9907    2.6076 H   0  0  0  0  0  0  0  0  0  0  0  0
   -0.0639    3.2187    2.5764 H   0  0  0  0  0  0  0  0  0  0  0  0
   -0.4981    1.5547    2.8639 H   0  0  0  0  0  0  0  0  0  0  0  0
    0.8135    4.4155    1.3712 H   0  0  0  0  0  0  0  0  0  0  0  0
    0.2079    6.4942    0.3299 H   0  0  0  0  0  0  0  0  0  0  0  0
   -1.2858    6.4593   -1.6078 H   0  0  0  0  0  0  0  0  0  0  0  0
   -2.1585    4.3555   -2.4541 H   0  0  0  0  0  0  0  0  0  0  0  0
   -3.9425    1.0386   -0.4494 H   0  0  0  0  0  0  0  0  0  0  0  0
   -1.2812   -1.1502   -1.3485 H   0  0  0  0  0  0  0  0  0  0  0  0
   -0.6361   -2.9106    0.1516 H   0  0  0  0  0  0  0  0  0  0  0  0
   -1.3072   -1.9695    1.5159 H   0  0  0  0  0  0  0  0  0  0  0  0
   -3.5988   -1.9995    0.4221 H   0  0  0  0  0  0  0  0  0  0  0  0
   -1.8703   -3.2266   -1.7120 H   0  0  0  0  0  0  0  0  0  0  0  0
   -3.6161   -3.6518   -1.5955 H   0  0  0  0  0  0  0  0  0  0  0  0
   -3.0927   -1.9117   -1.8961 H   0  0  0  0  0  0  0  0  0  0  0  0
   -2.7836   -4.8721   -0.0409 H   0  0  0  0  0  0  0  0  0  0  0  0
   -4.0153   -4.1845    1.1029 H   0  0  0  0  0  0  0  0  0  0  0  0
   -2.2991   -4.2693    1.5568 H   0  0  0  0  0  0  0  0  0  0  0  0
    2.8900    1.0603    0.9717 H   0  0  0  0  0  0  0  0  0  0  0  0
    4.7293    0.1353    0.9032 H   0  0  0  0  0  0  0  0  0  0  0  0
    6.9228   -1.0194    0.8384 H   0  0  0  0  0  0  0  0  0  0  0  0
    5.1227   -4.4662   -0.7003 H   0  0  0  0  0  0  0  0  0  0  0  0
    2.9536   -3.3877   -0.6590 H   0  0  0  0  0  0  0  0  0  0  0  0
  1  2  1  0
  2  3  1  0
  3  4  2  0
  4  5  1  0
  5  6  2  0
  6  7  1  0
  7  8  2  0
  8  9  1  0
  9 10  2  0
  9 11  2  0
  9 12  1  0
 12 13  1  0
 13 14  2  0
 13 15  1  0
 15 16  1  0
 16 17  1  0
 17 18  1  0
 17 19  1  0
 15 20  1  0
 20 21  1  0
 21 22  2  0
 22 23  1  0
 23 24  2  0
 22 25  1  0
 25 26  2  0
 26 27  1  0
 27 28  2  0
 28 29  1  0
 29 30  2  0
 24  2  1  0
 30 25  1  0
  8  3  1  0
 24 20  1  0
  1 31  1  0
  1 32  1  0
  1 33  1  0
  4 34  1  0
  5 35  1  0
  6 36  1  0
  7 37  1  0
 12 38  1  0
 15 39  1  0
 16 40  1  0
 16 41  1  0
 17 42  1  0
 18 43  1  0
 18 44  1  0
 18 45  1  0
 19 46  1  0
 19 47  1  0
 19 48  1  0
 23 49  1  0
 26 50  1  0
 27 51  1  0
 29 52  1  0
 30 53  1  0
M  END
$$$$
[H]c1c([H])c([H])c(-c2nn(C#N)c3nc(C([H])([H])N4C([H])([H])C([H])([H])C([H])([H])C([H])([H])C4([H])[H])nc(N([H])c4c([H])c([H])c([H])c(Cl)c4[H])c23)c(OC2([H])C([H])([H])C([H])([H])C([H])([H])C([H])([H])C2([H])[H])c1[H]
     RDKit          3D

 71 76  0  0  0  0  0  0  0  0999 V2000
   -3.8642   -2.1188    4.9718 Cl  0  0  0  0  0  0  0  0  0  0  0  0
   -3.4543   -2.4915    3.2883 C   0  0  0  0  0  0  0  0  0  0  0  0
   -4.3807   -3.1104    2.4709 C   0  0  0  0  0  0  0  0  0  0  0  0
   -4.0770   -3.4061    1.1648 C   0  0  0  0  0  0  0  0  0  0  0  0
   -2.8025   -3.0616    0.6883 C   0  0  0  0  0  0  0  0  0  0  0  0
   -1.8691   -2.4491    1.4724 C   0  0  0  0  0  0  0  0  0  0  0  0
   -0.5739   -2.0672    0.9709 N   0  0  0  0  0  0  0  0  0  0  0  0
   -0.4801   -1.6027   -0.3520 C   0  0  0  0  0  0  0  0  0  0  0  0
   -1.6079   -1.2580   -1.0442 N   0  0  0  0  0  0  0  0  0  0  0  0
   -1.5994   -0.6723   -2.2420 C   0  0  0  0  0  0  0  0  0  0  0  0
   -2.8278   -0.3071   -2.9703 C   0  0  0  0  0  0  0  0  0  0  0  0
   -3.4228    0.9023   -2.5896 N   0  0  0  0  0  0  0  0  0  0  0  0
   -3.8538    1.0658   -1.2653 C   0  0  0  0  0  0  0  0  0  0  0  0
   -4.6743    2.3290   -1.1362 C   0  0  0  0  0  0  0  0  0  0  0  0
   -5.7064    2.4609   -2.2177 C   0  0  0  0  0  0  0  0  0  0  0  0
   -5.2122    2.1118   -3.5857 C   0  0  0  0  0  0  0  0  0  0  0  0
   -3.7149    1.8869   -3.5465 C   0  0  0  0  0  0  0  0  0  0  0  0
   -0.4030   -0.4134   -2.7861 N   0  0  0  0  0  0  0  0  0  0  0  0
    0.7510   -0.7159   -2.1855 C   0  0  0  0  0  0  0  0  0  0  0  0
    2.0411   -0.5600   -2.5251 N   0  0  0  0  0  0  0  0  0  0  0  0
    2.8098   -1.0411   -1.5681 N   0  0  0  0  0  0  0  0  0  0  0  0
    2.0389   -1.5374   -0.5524 C   0  0  0  0  0  0  0  0  0  0  0  0
    2.6115   -2.1465    0.6293 C   0  0  0  0  0  0  0  0  0  0  0  0
    2.4964   -3.5107    0.8803 C   0  0  0  0  0  0  0  0  0  0  0  0
    3.1387   -4.0500    1.9676 C   0  0  0  0  0  0  0  0  0  0  0  0
    3.8824   -3.2627    2.7957 C   0  0  0  0  0  0  0  0  0  0  0  0
    3.9854   -1.8927    2.5251 C   0  0  0  0  0  0  0  0  0  0  0  0
    3.3583   -1.3218    1.4500 C   0  0  0  0  0  0  0  0  0  0  0  0
    3.4937    0.0325    1.2297 O   0  0  0  0  0  0  0  0  0  0  0  0
    4.1994    0.9651    1.9613 C   0  0  0  0  0  0  0  0  0  0  0  0
    5.2475    1.7008    1.1442 C   0  0  0  0  0  0  0  0  0  0  0  0
    5.5303    3.0113    1.8489 C   0  0  0  0  0  0  0  0  0  0  0  0
    4.4063    3.9793    1.5781 C   0  0  0  0  0  0  0  0  0  0  0  0
    3.1437    3.1755    1.3960 C   0  0  0  0  0  0  0  0  0  0  0  0
    3.1987    2.0378    2.4015 C   0  0  0  0  0  0  0  0  0  0  0  0
    0.7381   -1.3332   -0.9278 C   0  0  0  0  0  0  0  0  0  0  0  0
    2.5691    0.0121   -3.6893 C   0  0  0  0  0  0  0  0  0  0  0  0
    2.9881    0.4907   -4.6502 N   0  0  0  0  0  0  0  0  0  0  0  0
   -2.2172   -2.1705    2.7816 C   0  0  0  0  0  0  0  0  0  0  0  0
   -5.3543   -3.3568    2.8880 H   0  0  0  0  0  0  0  0  0  0  0  0
   -4.7996   -3.8913    0.5216 H   0  0  0  0  0  0  0  0  0  0  0  0
   -2.6145   -3.3408   -0.3334 H   0  0  0  0  0  0  0  0  0  0  0  0
    0.1833   -2.1373    1.6724 H   0  0  0  0  0  0  0  0  0  0  0  0
   -2.6509   -0.2704   -4.0870 H   0  0  0  0  0  0  0  0  0  0  0  0
   -3.5981   -1.1315   -2.8668 H   0  0  0  0  0  0  0  0  0  0  0  0
   -4.5491    0.2262   -0.9677 H   0  0  0  0  0  0  0  0  0  0  0  0
   -3.0592    1.0973   -0.4960 H   0  0  0  0  0  0  0  0  0  0  0  0
   -5.2301    2.2929   -0.1567 H   0  0  0  0  0  0  0  0  0  0  0  0
   -4.0561    3.2464   -1.0860 H   0  0  0  0  0  0  0  0  0  0  0  0
   -6.6059    1.8635   -1.9413 H   0  0  0  0  0  0  0  0  0  0  0  0
   -6.0214    3.5363   -2.2235 H   0  0  0  0  0  0  0  0  0  0  0  0
   -5.5074    2.8366   -4.3729 H   0  0  0  0  0  0  0  0  0  0  0  0
   -5.6693    1.1392   -3.8802 H   0  0  0  0  0  0  0  0  0  0  0  0
   -3.2317    2.8743   -3.3185 H   0  0  0  0  0  0  0  0  0  0  0  0
   -3.4006    1.5163   -4.5524 H   0  0  0  0  0  0  0  0  0  0  0  0
    1.9166   -4.1608    0.2475 H   0  0  0  0  0  0  0  0  0  0  0  0
    3.0415   -5.1335    2.1583 H   0  0  0  0  0  0  0  0  0  0  0  0
    4.3768   -3.7161    3.6440 H   0  0  0  0  0  0  0  0  0  0  0  0
    4.6012   -1.3596    3.2468 H   0  0  0  0  0  0  0  0  0  0  0  0
    4.7146    0.6091    2.8649 H   0  0  0  0  0  0  0  0  0  0  0  0
    6.1470    1.0554    1.0664 H   0  0  0  0  0  0  0  0  0  0  0  0
    4.9153    1.9283    0.1211 H   0  0  0  0  0  0  0  0  0  0  0  0
    6.5319    3.4276    1.5692 H   0  0  0  0  0  0  0  0  0  0  0  0
    5.6183    2.8198    2.9569 H   0  0  0  0  0  0  0  0  0  0  0  0
    4.2799    4.6228    2.4769 H   0  0  0  0  0  0  0  0  0  0  0  0
    4.6086    4.6728    0.7377 H   0  0  0  0  0  0  0  0  0  0  0  0
    2.9628    2.8387    0.3751 H   0  0  0  0  0  0  0  0  0  0  0  0
    2.2519    3.7959    1.6850 H   0  0  0  0  0  0  0  0  0  0  0  0
    3.5985    2.5014    3.3421 H   0  0  0  0  0  0  0  0  0  0  0  0
    2.1914    1.6230    2.5443 H   0  0  0  0  0  0  0  0  0  0  0  0
   -1.4781   -1.6872    3.4015 H   0  0  0  0  0  0  0  0  0  0  0  0
  1  2  1  0
  2  3  2  0
  3  4  1  0
  4  5  2  0
  5  6  1  0
  6  7  1  0
  7  8  1  0
  8  9  2  0
  9 10  1  0
 10 11  1  0
 11 12  1  0
 12 13  1  0
 13 14  1  0
 14 15  1  0
 15 16  1  0
 16 17  1  0
 10 18  2  0
 18 19  1  0
 19 20  1  0
 20 21  1  0
 21 22  2  0
 22 23  1  0
 23 24  2  0
 24 25  1  0
 25 26  2  0
 26 27  1  0
 27 28  2  0
 28 29  1  0
 29 30  1  0
 30 31  1  0
 31 32  1  0
 32 33  1  0
 33 34  1  0
 34 35  1  0
 22 36  1  0
 20 37  1  0
 37 38  3  0
  6 39  2  0
 39  2  1  0
 36  8  1  0
 17 12  1  0
 36 19  2  0
 28 23  1  0
 35 30  1  0
  3 40  1  0
  4 41  1  0
  5 42  1  0
  7 43  1  0
 11 44  1  0
 11 45  1  0
 13 46  1  0
 13 47  1  0
 14 48  1  0
 14 49  1  0
 15 50  1  0
 15 51  1  0
 16 52  1  0
 16 53  1  0
 17 54  1  0
 17 55  1  0
 24 56  1  0
 25 57  1  0
 26 58  1  0
 27 59  1  0
 30 60  1  0
 31 61  1  0
 31 62  1  0
 32 63  1  0
 32 64  1  0
 33 65  1  0
 33 66  1  0
 34 67  1  0
 34 68  1  0
 35 69  1  0
 35 70  1  0
 39 71  1  0
M  END
$$$$
[H]OC(=O)C([H])([H])N([H])c1nc(C([H])([H])[H])c(-c2c([H])c(Cl)c([H])c([H])c2Oc2c([H])c([H])c(S(=O)(=O)C([H])([H])[H])c([H])c2[H])s1
     RDKit          3D

 46 48  0  0  0  0  0  0  0  0999 V2000
   -4.2992   -1.8669   -2.7356 C   0  0  0  0  0  0  0  0  0  0  0  0
   -3.6438   -1.2658   -1.4857 C   0  0  0  0  0  0  0  0  0  0  0  0
   -4.4245   -0.9962   -0.4623 N   0  0  0  0  0  0  0  0  0  0  0  0
   -3.9387   -0.4765    0.6363 C   0  0  0  0  0  0  0  0  0  0  0  0
   -4.6342   -0.1098    1.8529 N   0  0  0  0  0  0  0  0  0  0  0  0
   -3.9336    0.4382    2.9565 C   0  0  0  0  0  0  0  0  0  0  0  0
   -2.9297   -0.4512    3.5521 C   0  0  0  0  0  0  0  0  0  0  0  0
   -2.1365   -0.0888    4.6263 O   0  0  0  0  0  0  0  0  0  0  0  0
   -2.7788   -1.5976    3.0676 O   0  0  0  0  0  0  0  0  0  0  0  0
   -2.2861   -0.3421    0.2502 S   0  0  0  0  0  0  0  0  0  0  0  0
   -2.3340   -0.9901   -1.3641 C   0  0  0  0  0  0  0  0  0  0  0  0
   -1.1904   -1.1346   -2.2467 C   0  0  0  0  0  0  0  0  0  0  0  0
   -1.1974   -1.6753   -3.4993 C   0  0  0  0  0  0  0  0  0  0  0  0
   -0.0648   -1.7849   -4.3158 C   0  0  0  0  0  0  0  0  0  0  0  0
   -0.1583   -2.4889   -5.9053 Cl  0  0  0  0  0  0  0  0  0  0  0  0
    1.1300   -1.3262   -3.8420 C   0  0  0  0  0  0  0  0  0  0  0  0
    1.1700   -0.7745   -2.5795 C   0  0  0  0  0  0  0  0  0  0  0  0
    0.0638   -0.6676   -1.7830 C   0  0  0  0  0  0  0  0  0  0  0  0
    0.1125   -0.1110   -0.5136 O   0  0  0  0  0  0  0  0  0  0  0  0
    1.3525    0.3497   -0.0559 C   0  0  0  0  0  0  0  0  0  0  0  0
    2.2131   -0.4781    0.6395 C   0  0  0  0  0  0  0  0  0  0  0  0
    3.4318   -0.0147    1.0857 C   0  0  0  0  0  0  0  0  0  0  0  0
    3.8455    1.2803    0.8627 C   0  0  0  0  0  0  0  0  0  0  0  0
    2.9935    2.1096    0.1711 C   0  0  0  0  0  0  0  0  0  0  0  0
    1.7748    1.6436   -0.2743 C   0  0  0  0  0  0  0  0  0  0  0  0
    5.3662    1.9063    1.4041 S   0  0  0  0  0  0  0  0  0  0  0  0
    5.2564    2.6205    3.0299 C   0  0  0  0  0  0  0  0  0  0  0  0
    5.8339    2.9578    0.4434 O   0  0  0  0  0  0  0  0  0  0  0  0
    6.4142    0.8324    1.4288 O   0  0  0  0  0  0  0  0  0  0  0  0
   -4.1688   -1.1768   -3.5862 H   0  0  0  0  0  0  0  0  0  0  0  0
   -3.9612   -2.8792   -2.8985 H   0  0  0  0  0  0  0  0  0  0  0  0
   -5.4182   -1.9247   -2.5869 H   0  0  0  0  0  0  0  0  0  0  0  0
   -5.6586   -0.2753    1.8532 H   0  0  0  0  0  0  0  0  0  0  0  0
   -3.4807    1.4330    2.6771 H   0  0  0  0  0  0  0  0  0  0  0  0
   -4.6725    0.6910    3.7435 H   0  0  0  0  0  0  0  0  0  0  0  0
   -1.8235    0.8515    4.8121 H   0  0  0  0  0  0  0  0  0  0  0  0
   -2.0935   -2.0656   -3.9482 H   0  0  0  0  0  0  0  0  0  0  0  0
    2.0350   -1.3881   -4.4346 H   0  0  0  0  0  0  0  0  0  0  0  0
    2.0976   -0.3979   -2.1641 H   0  0  0  0  0  0  0  0  0  0  0  0
    1.9096   -1.5006    0.8269 H   0  0  0  0  0  0  0  0  0  0  0  0
    4.1303   -0.6573    1.6404 H   0  0  0  0  0  0  0  0  0  0  0  0
    3.2563    3.1520   -0.0429 H   0  0  0  0  0  0  0  0  0  0  0  0
    1.0870    2.2996   -0.8281 H   0  0  0  0  0  0  0  0  0  0  0  0
    4.3254    3.2322    3.0960 H   0  0  0  0  0  0  0  0  0  0  0  0
    6.1319    3.3056    3.1361 H   0  0  0  0  0  0  0  0  0  0  0  0
    5.2959    1.8031    3.7597 H   0  0  0  0  0  0  0  0  0  0  0  0
  1  2  1  0
  2  3  1  0
  3  4  2  0
  4  5  1  0
  5  6  1  0
  6  7  1  0
  7  8  1  0
  7  9  2  0
  4 10  1  0
 10 11  1  0
 11 12  1  0
 12 13  2  0
 13 14  1  0
 14 15  1  0
 14 16  2  0
 16 17  1  0
 17 18  2  0
 18 19  1  0
 19 20  1  0
 20 21  2  0
 21 22  1  0
 22 23  2  0
 23 24  1  0
 24 25  2  0
 23 26  1  0
 26 27  1  0
 26 28  2  0
 26 29  2  0
 11  2  2  0
 18 12  1  0
 25 20  1  0
  1 30  1  0
  1 31  1  0
  1 32  1  0
  5 33  1  0
  6 34  1  0
  6 35  1  0
  8 36  1  0
 13 37  1  0
 16 38  1  0
 17 39  1  0
 21 40  1  0
 22 41  1  0
 24 42  1  0
 25 43  1  0
 27 44  1  0
 27 45  1  0
 27 46  1  0
M  END
$$$$
[H]c1c([H])c([H])c(N2C([H])([H])C([H])([H])N([H])C([H])([H])C2([H])[H])c(C#N)c1[H]
     RDKit          3D

 27 28  0  0  0  0  0  0  0  0999 V2000
   -0.1014   -1.3811   -2.8725 N   0  0  0  0  0  0  0  0  0  0  0  0
   -0.7331   -0.8532   -2.0611 C   0  0  0  0  0  0  0  0  0  0  0  0
   -1.5424   -0.2064   -1.0583 C   0  0  0  0  0  0  0  0  0  0  0  0
   -2.8998   -0.0400   -1.3704 C   0  0  0  0  0  0  0  0  0  0  0  0
   -3.7231    0.5585   -0.4534 C   0  0  0  0  0  0  0  0  0  0  0  0
   -3.2242    0.9895    0.7558 C   0  0  0  0  0  0  0  0  0  0  0  0
   -1.8852    0.8141    1.0382 C   0  0  0  0  0  0  0  0  0  0  0  0
   -1.0247    0.2128    0.1331 C   0  0  0  0  0  0  0  0  0  0  0  0
    0.3478    0.0458    0.4248 N   0  0  0  0  0  0  0  0  0  0  0  0
    1.3121    0.7643   -0.3386 C   0  0  0  0  0  0  0  0  0  0  0  0
    2.5888    0.0486   -0.5988 C   0  0  0  0  0  0  0  0  0  0  0  0
    3.0350   -0.8131    0.4474 N   0  0  0  0  0  0  0  0  0  0  0  0
    2.2721   -0.7342    1.6591 C   0  0  0  0  0  0  0  0  0  0  0  0
    0.7991   -0.8406    1.4822 C   0  0  0  0  0  0  0  0  0  0  0  0
   -3.2964   -0.3793   -2.3242 H   0  0  0  0  0  0  0  0  0  0  0  0
   -4.7806    0.6780   -0.7189 H   0  0  0  0  0  0  0  0  0  0  0  0
   -3.9096    1.4522    1.4406 H   0  0  0  0  0  0  0  0  0  0  0  0
   -1.5158    1.1585    1.9895 H   0  0  0  0  0  0  0  0  0  0  0  0
    0.8435    1.1084   -1.2746 H   0  0  0  0  0  0  0  0  0  0  0  0
    1.5043    1.7245    0.2325 H   0  0  0  0  0  0  0  0  0  0  0  0
    2.4951   -0.5460   -1.5280 H   0  0  0  0  0  0  0  0  0  0  0  0
    3.3845    0.8056   -0.7835 H   0  0  0  0  0  0  0  0  0  0  0  0
    4.0393   -0.6571    0.7037 H   0  0  0  0  0  0  0  0  0  0  0  0
    2.5718    0.1695    2.2505 H   0  0  0  0  0  0  0  0  0  0  0  0
    2.5948   -1.6096    2.2948 H   0  0  0  0  0  0  0  0  0  0  0  0
    0.5336   -1.8862    1.2419 H   0  0  0  0  0  0  0  0  0  0  0  0
    0.3146   -0.5834    2.4444 H   0  0  0  0  0  0  0  0  0  0  0  0
  1  2  3  0
  2  3  1  0
  3  4  2  0
  4  5  1  0
  5  6  2  0
  6  7  1  0
  7  8  2  0
  8  9  1  0
  9 10  1  0
 10 11  1  0
 11 12  1  0
 12 13  1  0
 13 14  1  0
  8  3  1  0
 14  9  1  0
  4 15  1  0
  5 16  1  0
  6 17  1  0
  7 18  1  0
 10 19  1  0
 10 20  1  0
 11 21  1  0
 11 22  1  0
 12 23  1  0
 13 24  1  0
 13 25  1  0
 14 26  1  0
 14 27  1  0
M  END
$$$$
[H]c1c([H])c([C@]2([H])ON(C(=O)C([H])(C([H])([H])[H])C([H])([H])[H])C([H])([H])C2([H])[H])c([H])c(Cl)c1C1(C([H])([H])[H])C([H])([H])C([H])([H])C([H])([H])C([H])([H])C1([H])[H]
     RDKit          3D

 52 54  0  0  0  0  0  0  0  0999 V2000
    7.5395   -0.4052    0.6829 C   0  0  0  0  0  0  0  0  0  0  0  0
    6.3813    0.0760   -0.1314 C   0  0  0  0  0  0  0  0  0  0  0  0
    6.4017    1.5682   -0.2790 C   0  0  0  0  0  0  0  0  0  0  0  0
    5.0844   -0.4177    0.4077 C   0  0  0  0  0  0  0  0  0  0  0  0
    5.1581   -1.1513    1.4544 O   0  0  0  0  0  0  0  0  0  0  0  0
    3.8431   -0.1128   -0.1762 N   0  0  0  0  0  0  0  0  0  0  0  0
    3.6304    0.6923   -1.3421 C   0  0  0  0  0  0  0  0  0  0  0  0
    2.4985   -0.0566   -2.0238 C   0  0  0  0  0  0  0  0  0  0  0  0
    1.9022   -0.8355   -0.8876 C   0  0  1  0  0  0  0  0  0  0  0  0
    2.6453   -0.5174    0.2507 O   0  0  0  0  0  0  0  0  0  0  0  0
    0.4736   -0.5785   -0.6897 C   0  0  0  0  0  0  0  0  0  0  0  0
   -0.4481   -1.5144   -1.0979 C   0  0  0  0  0  0  0  0  0  0  0  0
   -1.8068   -1.2944   -0.9213 C   0  0  0  0  0  0  0  0  0  0  0  0
   -2.2493   -0.1310   -0.3322 C   0  0  0  0  0  0  0  0  0  0  0  0
   -1.3093    0.8091    0.0763 C   0  0  0  0  0  0  0  0  0  0  0  0
   -1.7382    2.3375    0.8114 Cl  0  0  0  0  0  0  0  0  0  0  0  0
    0.0476    0.5883   -0.1004 C   0  0  0  0  0  0  0  0  0  0  0  0
   -3.6792    0.1276   -0.1168 C   0  0  0  0  0  0  0  0  0  0  0  0
   -4.1290    1.4026   -0.8179 C   0  0  0  0  0  0  0  0  0  0  0  0
   -4.5082   -0.9795   -0.7716 C   0  0  0  0  0  0  0  0  0  0  0  0
   -5.9828   -0.7733   -0.5018 C   0  0  0  0  0  0  0  0  0  0  0  0
   -6.2912   -0.6292    0.9500 C   0  0  0  0  0  0  0  0  0  0  0  0
   -5.4590    0.4098    1.6284 C   0  0  0  0  0  0  0  0  0  0  0  0
   -3.9946    0.0904    1.3376 C   0  0  0  0  0  0  0  0  0  0  0  0
    8.4480   -0.3624    0.0426 H   0  0  0  0  0  0  0  0  0  0  0  0
    7.7340    0.2838    1.5347 H   0  0  0  0  0  0  0  0  0  0  0  0
    7.4147   -1.4558    1.0070 H   0  0  0  0  0  0  0  0  0  0  0  0
    6.4732   -0.3741   -1.1550 H   0  0  0  0  0  0  0  0  0  0  0  0
    5.4630    2.0555    0.0545 H   0  0  0  0  0  0  0  0  0  0  0  0
    7.2034    1.9695    0.3742 H   0  0  0  0  0  0  0  0  0  0  0  0
    6.6831    1.8734   -1.3240 H   0  0  0  0  0  0  0  0  0  0  0  0
    3.2958    1.7042   -0.9993 H   0  0  0  0  0  0  0  0  0  0  0  0
    4.5164    0.7729   -2.0040 H   0  0  0  0  0  0  0  0  0  0  0  0
    2.9861   -0.7314   -2.7792 H   0  0  0  0  0  0  0  0  0  0  0  0
    1.7799    0.6323   -2.5088 H   0  0  0  0  0  0  0  0  0  0  0  0
    2.0935   -1.9188   -1.0816 H   0  0  0  0  0  0  0  0  0  0  0  0
   -0.1450   -2.4462   -1.5670 H   0  0  0  0  0  0  0  0  0  0  0  0
   -2.4686   -2.0721   -1.2702 H   0  0  0  0  0  0  0  0  0  0  0  0
    0.7956    1.3012    0.2081 H   0  0  0  0  0  0  0  0  0  0  0  0
   -4.4960    2.1756   -0.1314 H   0  0  0  0  0  0  0  0  0  0  0  0
   -3.2502    1.7784   -1.4285 H   0  0  0  0  0  0  0  0  0  0  0  0
   -4.9137    1.2372   -1.5801 H   0  0  0  0  0  0  0  0  0  0  0  0
   -4.3499   -0.8976   -1.8586 H   0  0  0  0  0  0  0  0  0  0  0  0
   -4.2612   -1.9784   -0.4397 H   0  0  0  0  0  0  0  0  0  0  0  0
   -6.4466    0.0094   -1.1055 H   0  0  0  0  0  0  0  0  0  0  0  0
   -6.4765   -1.7350   -0.8366 H   0  0  0  0  0  0  0  0  0  0  0  0
   -6.1947   -1.5896    1.5100 H   0  0  0  0  0  0  0  0  0  0  0  0
   -7.3586   -0.3376    1.0436 H   0  0  0  0  0  0  0  0  0  0  0  0
   -5.5939    0.2615    2.7266 H   0  0  0  0  0  0  0  0  0  0  0  0
   -5.7033    1.4195    1.3025 H   0  0  0  0  0  0  0  0  0  0  0  0
   -3.3941    0.6968    2.0021 H   0  0  0  0  0  0  0  0  0  0  0  0
   -3.8444   -0.9769    1.6584 H   0  0  0  0  0  0  0  0  0  0  0  0
  1  2  1  0
  2  3  1  0
  2  4  1  0
  4  5  2  0
  4  6  1  0
  6  7  1  0
  7  8  1  0
  8  9  1  0
  9 10  1  0
  9 11  1  0
 11 12  2  0
 12 13  1  0
 13 14  2  0
 14 15  1  0
 15 16  1  0
 15 17  2  0
 14 18  1  0
 18 19  1  0
 18 20  1  0
 20 21  1  0
 21 22  1  0
 22 23  1  0
 23 24  1  0
 10  6  1  0
 17 11  1  0
 24 18  1  0
  1 25  1  0
  1 26  1  0
  1 27  1  0
  2 28  1  0
  3 29  1  0
  3 30  1  0
  3 31  1  0
  7 32  1  0
  7 33  1  0
  8 34  1  0
  8 35  1  0
  9 36  1  6
 12 37  1  0
 13 38  1  0
 17 39  1  0
 19 40  1  0
 19 41  1  0
 19 42  1  0
 20 43  1  0
 20 44  1  0
 21 45  1  0
 21 46  1  0
 22 47  1  0
 22 48  1  0
 23 49  1  0
 23 50  1  0
 24 51  1  0
 24 52  1  0
M  END
$$$$
[H]OC(=O)c1c([H])c(N([H])c2onc(C([H])([H])C([H])([H])N3C([H])([H])[C@@]([H])(C([H])([H])[H])C([H])([H])c4c([H])c([H])c([H])c([H])c4S3(=O)=O)c2[H])c([H])c(C(C([H])([H])[H])(C([H])([H])[H])C([H])([H])[H])c1[H]
     RDKit          3D

 66 69  0  0  0  0  0  0  0  0999 V2000
    4.8460   -1.1959    2.6180 C   0  0  0  0  0  0  0  0  0  0  0  0
    5.2554   -0.5934    1.2887 C   0  0  2  0  0  0  0  0  0  0  0  0
    4.7069   -1.4017    0.1297 C   0  0  0  0  0  0  0  0  0  0  0  0
    3.9397   -0.6044   -0.7768 N   0  0  0  0  0  0  0  0  0  0  0  0
    2.5612   -0.4656   -0.4726 C   0  0  0  0  0  0  0  0  0  0  0  0
    1.6168   -1.0097   -1.5212 C   0  0  0  0  0  0  0  0  0  0  0  0
    0.1950   -0.7819   -1.0690 C   0  0  0  0  0  0  0  0  0  0  0  0
   -0.5392   -1.6199   -0.2451 C   0  0  0  0  0  0  0  0  0  0  0  0
   -1.8088   -1.0183   -0.1065 C   0  0  0  0  0  0  0  0  0  0  0  0
   -2.8427   -1.5938    0.6784 N   0  0  0  0  0  0  0  0  0  0  0  0
   -4.1225   -1.0490    0.7881 C   0  0  0  0  0  0  0  0  0  0  0  0
   -4.6515   -0.1092   -0.0454 C   0  0  0  0  0  0  0  0  0  0  0  0
   -5.9449    0.4077    0.1311 C   0  0  0  0  0  0  0  0  0  0  0  0
   -6.6929   -0.0712    1.1994 C   0  0  0  0  0  0  0  0  0  0  0  0
   -6.1835   -1.0179    2.0556 C   0  0  0  0  0  0  0  0  0  0  0  0
   -4.9205   -1.4960    1.8502 C   0  0  0  0  0  0  0  0  0  0  0  0
   -7.0070   -1.4982    3.1552 C   0  0  0  0  0  0  0  0  0  0  0  0
   -8.2839   -1.0427    3.3449 O   0  0  0  0  0  0  0  0  0  0  0  0
   -6.5044   -2.3547    3.9347 O   0  0  0  0  0  0  0  0  0  0  0  0
   -6.4346    1.4089   -0.8067 C   0  0  0  0  0  0  0  0  0  0  0  0
   -6.4763    2.8120   -0.2227 C   0  0  0  0  0  0  0  0  0  0  0  0
   -5.5265    1.4490   -2.0276 C   0  0  0  0  0  0  0  0  0  0  0  0
   -7.8173    1.0943   -1.3450 C   0  0  0  0  0  0  0  0  0  0  0  0
   -1.7713    0.0596   -0.8003 O   0  0  0  0  0  0  0  0  0  0  0  0
   -0.6076    0.2371   -1.3834 N   0  0  0  0  0  0  0  0  0  0  0  0
    4.7265    0.7484   -1.3924 S   0  0  0  0  0  0  0  0  0  0  0  0
    4.1401    2.0381   -0.8368 O   0  0  0  0  0  0  0  0  0  0  0  0
    4.5605    0.8176   -2.8776 O   0  0  0  0  0  0  0  0  0  0  0  0
    6.4307    0.8036   -1.0301 C   0  0  0  0  0  0  0  0  0  0  0  0
    7.0805    1.5401   -1.9962 C   0  0  0  0  0  0  0  0  0  0  0  0
    8.4632    1.7431   -1.9540 C   0  0  0  0  0  0  0  0  0  0  0  0
    9.1994    1.2071   -0.9398 C   0  0  0  0  0  0  0  0  0  0  0  0
    8.5590    0.4717    0.0261 C   0  0  0  0  0  0  0  0  0  0  0  0
    7.1755    0.2668   -0.0137 C   0  0  0  0  0  0  0  0  0  0  0  0
    6.7514   -0.5457    1.1256 C   0  0  0  0  0  0  0  0  0  0  0  0
    4.3031   -2.1306    2.4033 H   0  0  0  0  0  0  0  0  0  0  0  0
    4.1310   -0.4934    3.1028 H   0  0  0  0  0  0  0  0  0  0  0  0
    5.6805   -1.3818    3.3027 H   0  0  0  0  0  0  0  0  0  0  0  0
    4.8901    0.4461    1.1725 H   0  0  0  0  0  0  0  0  0  0  0  0
    4.0589   -2.1918    0.5542 H   0  0  0  0  0  0  0  0  0  0  0  0
    5.5188   -1.8910   -0.4485 H   0  0  0  0  0  0  0  0  0  0  0  0
    2.3360    0.6380   -0.4063 H   0  0  0  0  0  0  0  0  0  0  0  0
    2.2728   -0.8570    0.5349 H   0  0  0  0  0  0  0  0  0  0  0  0
    1.7107   -0.4571   -2.4779 H   0  0  0  0  0  0  0  0  0  0  0  0
    1.7189   -2.0731   -1.7217 H   0  0  0  0  0  0  0  0  0  0  0  0
   -0.2287   -2.5416    0.2094 H   0  0  0  0  0  0  0  0  0  0  0  0
   -2.6387   -2.4942    1.2211 H   0  0  0  0  0  0  0  0  0  0  0  0
   -4.0777    0.2592   -0.8842 H   0  0  0  0  0  0  0  0  0  0  0  0
   -7.6871    0.3349    1.3131 H   0  0  0  0  0  0  0  0  0  0  0  0
   -4.5411   -2.2491    2.5530 H   0  0  0  0  0  0  0  0  0  0  0  0
   -9.0129   -1.6457    3.7484 H   0  0  0  0  0  0  0  0  0  0  0  0
   -6.8278    3.4999   -1.0476 H   0  0  0  0  0  0  0  0  0  0  0  0
   -7.1596    2.8594    0.6392 H   0  0  0  0  0  0  0  0  0  0  0  0
   -5.4244    3.0615    0.0719 H   0  0  0  0  0  0  0  0  0  0  0  0
   -4.5590    1.9320   -1.8315 H   0  0  0  0  0  0  0  0  0  0  0  0
   -6.0678    1.9760   -2.8608 H   0  0  0  0  0  0  0  0  0  0  0  0
   -5.4018    0.4146   -2.3996 H   0  0  0  0  0  0  0  0  0  0  0  0
   -7.9923    1.8086   -2.1762 H   0  0  0  0  0  0  0  0  0  0  0  0
   -7.8084    0.0772   -1.8435 H   0  0  0  0  0  0  0  0  0  0  0  0
   -8.6236    1.2190   -0.6290 H   0  0  0  0  0  0  0  0  0  0  0  0
    6.5695    2.0027   -2.8351 H   0  0  0  0  0  0  0  0  0  0  0  0
    8.9884    2.3284   -2.7228 H   0  0  0  0  0  0  0  0  0  0  0  0
   10.2874    1.3731   -0.9134 H   0  0  0  0  0  0  0  0  0  0  0  0
    9.1410    0.0387    0.8406 H   0  0  0  0  0  0  0  0  0  0  0  0
    7.2752   -0.2218    2.0744 H   0  0  0  0  0  0  0  0  0  0  0  0
    7.0961   -1.6156    0.9938 H   0  0  0  0  0  0  0  0  0  0  0  0
  1  2  1  0
  2  3  1  0
  3  4  1  0
  4  5  1  0
  5  6  1  0
  6  7  1  0
  7  8  1  0
  8  9  2  0
  9 10  1  0
 10 11  1  0
 11 12  2  0
 12 13  1  0
 13 14  2  0
 14 15  1  0
 15 16  2  0
 15 17  1  0
 17 18  1  0
 17 19  2  0
 13 20  1  0
 20 21  1  0
 20 22  1  0
 20 23  1  0
  9 24  1  0
 24 25  1  0
  4 26  1  0
 26 27  2  0
 26 28  2  0
 26 29  1  0
 29 30  2  0
 30 31  1  0
 31 32  2  0
 32 33  1  0
 33 34  2  0
 34 35  1  0
 35  2  1  0
 25  7  2  0
 34 29  1  0
 16 11  1  0
  1 36  1  0
  1 37  1  0
  1 38  1  0
  2 39  1  6
  3 40  1  0
  3 41  1  0
  5 42  1  0
  5 43  1  0
  6 44  1  0
  6 45  1  0
  8 46  1  0
 10 47  1  0
 12 48  1  0
 14 49  1  0
 16 50  1  0
 18 51  1  0
 21 52  1  0
 21 53  1  0
 21 54  1  0
 22 55  1  0
 22 56  1  0
 22 57  1  0
 23 58  1  0
 23 59  1  0
 23 60  1  0
 30 61  1  0
 31 62  1  0
 32 63  1  0
 33 64  1  0
 35 65  1  0
 35 66  1  0
M  END
$$$$
[H]OC(=O)c1nc([H])c(N([H])c2nc([H])c(C3([H])C([H])([H])C([H])([H])N(C([H])([H])[H])C([H])([H])C3([H])[H])c([H])c2[H])c(-c2c([H])nc(N3C([H])([H])C([H])([H])OC([H])([H])C3([H])[H])c([H])c2[H])n1
     RDKit          3D

 64 68  0  0  0  0  0  0  0  0999 V2000
    8.2621    2.8112    0.5883 C   0  0  0  0  0  0  0  0  0  0  0  0
    7.1115    2.0082    0.2971 N   0  0  0  0  0  0  0  0  0  0  0  0
    6.8890    0.9700    1.2827 C   0  0  0  0  0  0  0  0  0  0  0  0
    5.5054    0.3783    1.1842 C   0  0  0  0  0  0  0  0  0  0  0  0
    4.9113    0.5405   -0.1968 C   0  0  0  0  0  0  0  0  0  0  0  0
    4.9231    1.9731   -0.6557 C   0  0  0  0  0  0  0  0  0  0  0  0
    5.8994    2.7914    0.1630 C   0  0  0  0  0  0  0  0  0  0  0  0
    3.5471   -0.0456   -0.1534 C   0  0  0  0  0  0  0  0  0  0  0  0
    3.2163   -1.1370   -0.8954 C   0  0  0  0  0  0  0  0  0  0  0  0
    1.9131   -1.6456   -0.8118 C   0  0  0  0  0  0  0  0  0  0  0  0
    0.9643   -1.0890   -0.0131 C   0  0  0  0  0  0  0  0  0  0  0  0
   -0.3211   -1.5980    0.1473 N   0  0  0  0  0  0  0  0  0  0  0  0
   -0.7862   -2.8527   -0.2493 C   0  0  0  0  0  0  0  0  0  0  0  0
   -0.0048   -4.0009   -0.2590 C   0  0  0  0  0  0  0  0  0  0  0  0
   -0.5782   -5.1951   -0.5324 N   0  0  0  0  0  0  0  0  0  0  0  0
   -1.8845   -5.3057   -0.7939 C   0  0  0  0  0  0  0  0  0  0  0  0
   -2.6505   -4.2085   -0.7873 N   0  0  0  0  0  0  0  0  0  0  0  0
   -2.1525   -2.9855   -0.5261 C   0  0  0  0  0  0  0  0  0  0  0  0
   -2.9832   -1.8088   -0.5338 C   0  0  0  0  0  0  0  0  0  0  0  0
   -2.7074   -0.6392   -1.1974 C   0  0  0  0  0  0  0  0  0  0  0  0
   -3.5649    0.4542   -1.1550 C   0  0  0  0  0  0  0  0  0  0  0  0
   -4.7395    0.3788   -0.4247 C   0  0  0  0  0  0  0  0  0  0  0  0
   -4.9946   -0.7598    0.2134 N   0  0  0  0  0  0  0  0  0  0  0  0
   -4.1672   -1.8387    0.1827 C   0  0  0  0  0  0  0  0  0  0  0  0
   -5.6532    1.4538   -0.3402 N   0  0  0  0  0  0  0  0  0  0  0  0
   -5.4267    2.7245   -0.9774 C   0  0  0  0  0  0  0  0  0  0  0  0
   -6.1440    3.8780   -0.3632 C   0  0  0  0  0  0  0  0  0  0  0  0
   -7.2887    3.5747    0.3286 O   0  0  0  0  0  0  0  0  0  0  0  0
   -7.0624    2.5328    1.2553 C   0  0  0  0  0  0  0  0  0  0  0  0
   -6.8793    1.2876    0.4146 C   0  0  0  0  0  0  0  0  0  0  0  0
   -2.4949   -6.5898   -1.0853 C   0  0  0  0  0  0  0  0  0  0  0  0
   -3.8508   -6.6565   -1.3503 O   0  0  0  0  0  0  0  0  0  0  0  0
   -1.7602   -7.6156   -1.0875 O   0  0  0  0  0  0  0  0  0  0  0  0
    1.3180    0.0080    0.7231 N   0  0  0  0  0  0  0  0  0  0  0  0
    2.5509    0.4970    0.6490 C   0  0  0  0  0  0  0  0  0  0  0  0
    9.0689    2.5397   -0.1509 H   0  0  0  0  0  0  0  0  0  0  0  0
    8.0735    3.8964    0.6030 H   0  0  0  0  0  0  0  0  0  0  0  0
    8.6253    2.5441    1.6171 H   0  0  0  0  0  0  0  0  0  0  0  0
    7.6560    0.1853    1.1387 H   0  0  0  0  0  0  0  0  0  0  0  0
    7.0088    1.3708    2.3083 H   0  0  0  0  0  0  0  0  0  0  0  0
    5.5998   -0.7114    1.3712 H   0  0  0  0  0  0  0  0  0  0  0  0
    4.8487    0.8409    1.9399 H   0  0  0  0  0  0  0  0  0  0  0  0
    5.5215   -0.0595   -0.9036 H   0  0  0  0  0  0  0  0  0  0  0  0
    5.2947    2.0359   -1.7201 H   0  0  0  0  0  0  0  0  0  0  0  0
    3.9331    2.4656   -0.5822 H   0  0  0  0  0  0  0  0  0  0  0  0
    6.1451    3.7220   -0.4051 H   0  0  0  0  0  0  0  0  0  0  0  0
    5.4330    3.0530    1.1160 H   0  0  0  0  0  0  0  0  0  0  0  0
    3.9643   -1.5821   -1.5280 H   0  0  0  0  0  0  0  0  0  0  0  0
    1.7207   -2.4969   -1.4787 H   0  0  0  0  0  0  0  0  0  0  0  0
   -1.0066   -0.9349    0.6556 H   0  0  0  0  0  0  0  0  0  0  0  0
    1.0606   -3.9767   -0.0111 H   0  0  0  0  0  0  0  0  0  0  0  0
   -1.7838   -0.5764   -1.7732 H   0  0  0  0  0  0  0  0  0  0  0  0
   -3.3315    1.3716   -1.6865 H   0  0  0  0  0  0  0  0  0  0  0  0
   -4.4827   -2.7031    0.7397 H   0  0  0  0  0  0  0  0  0  0  0  0
   -4.3237    2.9447   -0.8690 H   0  0  0  0  0  0  0  0  0  0  0  0
   -5.6490    2.5947   -2.0652 H   0  0  0  0  0  0  0  0  0  0  0  0
   -6.4538    4.5644   -1.2057 H   0  0  0  0  0  0  0  0  0  0  0  0
   -5.4924    4.5091    0.2805 H   0  0  0  0  0  0  0  0  0  0  0  0
   -7.9040    2.4671    1.9536 H   0  0  0  0  0  0  0  0  0  0  0  0
   -6.1208    2.7435    1.8329 H   0  0  0  0  0  0  0  0  0  0  0  0
   -6.8521    0.3758    1.0479 H   0  0  0  0  0  0  0  0  0  0  0  0
   -7.7685    1.2594   -0.2820 H   0  0  0  0  0  0  0  0  0  0  0  0
   -4.5394   -6.1156   -0.8134 H   0  0  0  0  0  0  0  0  0  0  0  0
    2.8372    1.3823    1.2429 H   0  0  0  0  0  0  0  0  0  0  0  0
  1  2  1  0
  2  3  1  0
  3  4  1  0
  4  5  1  0
  5  6  1  0
  6  7  1  0
  5  8  1  0
  8  9  2  0
  9 10  1  0
 10 11  2  0
 11 12  1  0
 12 13  1  0
 13 14  2  0
 14 15  1  0
 15 16  2  0
 16 17  1  0
 17 18  2  0
 18 19  1  0
 19 20  2  0
 20 21  1  0
 21 22  2  0
 22 23  1  0
 23 24  2  0
 22 25  1  0
 25 26  1  0
 26 27  1  0
 27 28  1  0
 28 29  1  0
 29 30  1  0
 16 31  1  0
 31 32  1  0
 31 33  2  0
 11 34  1  0
 34 35  2  0
  7  2  1  0
 35  8  1  0
 18 13  1  0
 24 19  1  0
 30 25  1  0
  1 36  1  0
  1 37  1  0
  1 38  1  0
  3 39  1  0
  3 40  1  0
  4 41  1  0
  4 42  1  0
  5 43  1  0
  6 44  1  0
  6 45  1  0
  7 46  1  0
  7 47  1  0
  9 48  1  0
 10 49  1  0
 12 50  1  0
 14 51  1  0
 20 52  1  0
 21 53  1  0
 24 54  1  0
 26 55  1  0
 26 56  1  0
 27 57  1  0
 27 58  1  0
 29 59  1  0
 29 60  1  0
 30 61  1  0
 30 62  1  0
 32 63  1  0
 35 64  1  0
M  END
$$$$
[H]c1nc(-c2c(-c3c([H])c([H])c(C(F)(F)F)c([H])c3[H])nc3c([H])c([H])n(C([H])([H])[H])c3c2[H])c([H])c([H])c1C([H])([H])[H]
     RDKit          3D

 43 46  0  0  0  0  0  0  0  0999 V2000
   -2.3003   -4.4601   -1.6470 C   0  0  0  0  0  0  0  0  0  0  0  0
   -1.8120   -3.1145   -1.2905 C   0  0  0  0  0  0  0  0  0  0  0  0
   -2.4817   -2.4139   -0.3264 C   0  0  0  0  0  0  0  0  0  0  0  0
   -2.0969   -1.1679    0.0538 C   0  0  0  0  0  0  0  0  0  0  0  0
   -0.9935   -0.5672   -0.5391 C   0  0  0  0  0  0  0  0  0  0  0  0
   -0.3356   -1.2506   -1.4824 N   0  0  0  0  0  0  0  0  0  0  0  0
   -0.7201   -2.4976   -1.8641 C   0  0  0  0  0  0  0  0  0  0  0  0
   -0.6717    0.7704   -0.0760 C   0  0  0  0  0  0  0  0  0  0  0  0
   -1.6387    1.7886   -0.1375 C   0  0  0  0  0  0  0  0  0  0  0  0
   -1.2800    3.0332    0.3237 C   0  0  0  0  0  0  0  0  0  0  0  0
   -1.9606    4.1802    0.3995 N   0  0  0  0  0  0  0  0  0  0  0  0
   -3.3253    4.3422   -0.0217 C   0  0  0  0  0  0  0  0  0  0  0  0
   -1.1976    5.1572    0.9291 C   0  0  0  0  0  0  0  0  0  0  0  0
    0.0462    4.6437    1.2212 C   0  0  0  0  0  0  0  0  0  0  0  0
   -0.0263    3.3015    0.8320 C   0  0  0  0  0  0  0  0  0  0  0  0
    0.8731    2.3098    0.8777 N   0  0  0  0  0  0  0  0  0  0  0  0
    0.5593    1.0505    0.4285 C   0  0  0  0  0  0  0  0  0  0  0  0
    1.5746    0.0053    0.5032 C   0  0  0  0  0  0  0  0  0  0  0  0
    2.7552    0.3016   -0.1983 C   0  0  0  0  0  0  0  0  0  0  0  0
    3.7883   -0.5984   -0.1700 C   0  0  0  0  0  0  0  0  0  0  0  0
    3.7135   -1.7948    0.5266 C   0  0  0  0  0  0  0  0  0  0  0  0
    2.5331   -2.0388    1.1972 C   0  0  0  0  0  0  0  0  0  0  0  0
    1.4681   -1.1585    1.1945 C   0  0  0  0  0  0  0  0  0  0  0  0
    4.8825   -2.7017    0.5138 C   0  0  0  0  0  0  0  0  0  0  0  0
    5.2154   -3.0866   -0.7479 F   0  0  0  0  0  0  0  0  0  0  0  0
    4.7022   -3.7338    1.4025 F   0  0  0  0  0  0  0  0  0  0  0  0
    5.9424   -1.9458    1.0399 F   0  0  0  0  0  0  0  0  0  0  0  0
   -2.0036   -5.2129   -0.8996 H   0  0  0  0  0  0  0  0  0  0  0  0
   -1.9641   -4.8059   -2.6230 H   0  0  0  0  0  0  0  0  0  0  0  0
   -3.4286   -4.4416   -1.6790 H   0  0  0  0  0  0  0  0  0  0  0  0
   -3.3593   -2.8763    0.1544 H   0  0  0  0  0  0  0  0  0  0  0  0
   -2.6552   -0.6368    0.8266 H   0  0  0  0  0  0  0  0  0  0  0  0
   -0.1844   -3.0516   -2.6319 H   0  0  0  0  0  0  0  0  0  0  0  0
   -2.6113    1.5546   -0.5366 H   0  0  0  0  0  0  0  0  0  0  0  0
   -3.3455    5.1827   -0.7271 H   0  0  0  0  0  0  0  0  0  0  0  0
   -3.7477    3.4445   -0.4785 H   0  0  0  0  0  0  0  0  0  0  0  0
   -3.9180    4.6488    0.8903 H   0  0  0  0  0  0  0  0  0  0  0  0
   -1.4811    6.1880    1.1089 H   0  0  0  0  0  0  0  0  0  0  0  0
    0.9189    5.1237    1.6509 H   0  0  0  0  0  0  0  0  0  0  0  0
    2.8752    1.2159   -0.7580 H   0  0  0  0  0  0  0  0  0  0  0  0
    4.7142   -0.3797   -0.7109 H   0  0  0  0  0  0  0  0  0  0  0  0
    2.4322   -2.9474    1.7446 H   0  0  0  0  0  0  0  0  0  0  0  0
    0.5449   -1.3598    1.7264 H   0  0  0  0  0  0  0  0  0  0  0  0
  1  2  1  0
  2  3  2  0
  3  4  1  0
  4  5  2  0
  5  6  1  0
  6  7  2  0
  5  8  1  0
  8  9  2  0
  9 10  1  0
 10 11  1  0
 11 12  1  0
 11 13  1  0
 13 14  2  0
 14 15  1  0
 15 16  1  0
 16 17  2  0
 17 18  1  0
 18 19  2  0
 19 20  1  0
 20 21  2  0
 21 22  1  0
 22 23  2  0
 21 24  1  0
 24 25  1  0
 24 26  1  0
 24 27  1  0
  7  2  1  0
 17  8  1  0
 23 18  1  0
 15 10  2  0
  1 28  1  0
  1 29  1  0
  1 30  1  0
  3 31  1  0
  4 32  1  0
  7 33  1  0
  9 34  1  0
 12 35  1  0
 12 36  1  0
 12 37  1  0
 13 38  1  0
 14 39  1  0
 19 40  1  0
 20 41  1  0
 22 42  1  0
 23 43  1  0
M  END
$$$$
[H]c1nn([H])c(-c2c([H])c([H])c([H])c([H])c2[H])c1C(=O)N1C([H])([H])C([H])([H])C([H])([H])C([H])(C(=O)OC([H])([H])[H])C([H])([H])C1([H])[H]
     RDKit          3D

 45 47  0  0  0  0  0  0  0  0999 V2000
   -4.4664    2.3733   -1.7508 C   0  0  0  0  0  0  0  0  0  0  0  0
   -3.9115    1.7034   -0.6338 O   0  0  0  0  0  0  0  0  0  0  0  0
   -3.7753    0.3393   -0.5586 C   0  0  0  0  0  0  0  0  0  0  0  0
   -4.1485   -0.3760   -1.5033 O   0  0  0  0  0  0  0  0  0  0  0  0
   -3.1868   -0.2716    0.6426 C   0  0  0  0  0  0  0  0  0  0  0  0
   -3.1002   -1.7676    0.5703 C   0  0  0  0  0  0  0  0  0  0  0  0
   -2.1603   -2.3008   -0.4460 C   0  0  0  0  0  0  0  0  0  0  0  0
   -0.7333   -2.4616    0.0893 C   0  0  0  0  0  0  0  0  0  0  0  0
   -0.1980   -1.1830    0.5095 N   0  0  0  0  0  0  0  0  0  0  0  0
   -0.7458    0.1207    0.1604 C   0  0  0  0  0  0  0  0  0  0  0  0
   -1.8966    0.3836    1.0705 C   0  0  0  0  0  0  0  0  0  0  0  0
    0.9561   -1.2235    1.3290 C   0  0  0  0  0  0  0  0  0  0  0  0
    1.4390   -2.3409    1.6381 O   0  0  0  0  0  0  0  0  0  0  0  0
    1.6073   -0.0286    1.8332 C   0  0  0  0  0  0  0  0  0  0  0  0
    1.2597    0.5768    3.0549 C   0  0  0  0  0  0  0  0  0  0  0  0
    2.0606    1.6314    3.1649 N   0  0  0  0  0  0  0  0  0  0  0  0
    2.8536    1.7035    2.1132 N   0  0  0  0  0  0  0  0  0  0  0  0
    2.6062    0.6803    1.2467 C   0  0  0  0  0  0  0  0  0  0  0  0
    3.3392    0.5228   -0.0049 C   0  0  0  0  0  0  0  0  0  0  0  0
    3.1735   -0.4854   -0.8960 C   0  0  0  0  0  0  0  0  0  0  0  0
    3.9191   -0.5518   -2.0822 C   0  0  0  0  0  0  0  0  0  0  0  0
    4.8514    0.3955   -2.4018 C   0  0  0  0  0  0  0  0  0  0  0  0
    5.0329    1.4234   -1.5115 C   0  0  0  0  0  0  0  0  0  0  0  0
    4.3017    1.4797   -0.3584 C   0  0  0  0  0  0  0  0  0  0  0  0
   -3.8462    3.2611   -2.0450 H   0  0  0  0  0  0  0  0  0  0  0  0
   -5.5048    2.6964   -1.4706 H   0  0  0  0  0  0  0  0  0  0  0  0
   -4.5107    1.7248   -2.6510 H   0  0  0  0  0  0  0  0  0  0  0  0
   -3.9161   -0.0544    1.4813 H   0  0  0  0  0  0  0  0  0  0  0  0
   -2.8388   -2.1325    1.5835 H   0  0  0  0  0  0  0  0  0  0  0  0
   -4.1144   -2.1483    0.3540 H   0  0  0  0  0  0  0  0  0  0  0  0
   -2.4868   -3.3563   -0.6828 H   0  0  0  0  0  0  0  0  0  0  0  0
   -2.1081   -1.7477   -1.3825 H   0  0  0  0  0  0  0  0  0  0  0  0
   -0.6746   -3.2312    0.8728 H   0  0  0  0  0  0  0  0  0  0  0  0
   -0.1225   -2.7749   -0.8001 H   0  0  0  0  0  0  0  0  0  0  0  0
   -1.1661    0.0473   -0.8854 H   0  0  0  0  0  0  0  0  0  0  0  0
    0.0018    0.9111    0.1291 H   0  0  0  0  0  0  0  0  0  0  0  0
   -1.6965    0.0359    2.1114 H   0  0  0  0  0  0  0  0  0  0  0  0
   -2.0886    1.4674    1.1389 H   0  0  0  0  0  0  0  0  0  0  0  0
    0.4915    0.2159    3.7264 H   0  0  0  0  0  0  0  0  0  0  0  0
    3.5659    2.4753    2.0141 H   0  0  0  0  0  0  0  0  0  0  0  0
    2.4728   -1.2813   -0.7433 H   0  0  0  0  0  0  0  0  0  0  0  0
    3.7744   -1.3615   -2.7809 H   0  0  0  0  0  0  0  0  0  0  0  0
    5.4383    0.3765   -3.2977 H   0  0  0  0  0  0  0  0  0  0  0  0
    5.7667    2.2232   -1.7023 H   0  0  0  0  0  0  0  0  0  0  0  0
    4.4849    2.3101    0.3046 H   0  0  0  0  0  0  0  0  0  0  0  0
  1  2  1  0
  2  3  1  0
  3  4  2  0
  3  5  1  0
  5  6  1  0
  6  7  1  0
  7  8  1  0
  8  9  1  0
  9 10  1  0
 10 11  1  0
  9 12  1  0
 12 13  2  0
 12 14  1  0
 14 15  1  0
 15 16  2  0
 16 17  1  0
 17 18  1  0
 18 19  1  0
 19 20  2  0
 20 21  1  0
 21 22  2  0
 22 23  1  0
 23 24  2  0
 11  5  1  0
 18 14  2  0
 24 19  1  0
  1 25  1  0
  1 26  1  0
  1 27  1  0
  5 28  1  0
  6 29  1  0
  6 30  1  0
  7 31  1  0
  7 32  1  0
  8 33  1  0
  8 34  1  0
 10 35  1  0
 10 36  1  0
 11 37  1  0
 11 38  1  0
 15 39  1  0
 17 40  1  0
 20 41  1  0
 21 42  1  0
 22 43  1  0
 23 44  1  0
 24 45  1  0
M  END
$$$$
[H]c1c([H])c([H])c(C2([H])C([H])([H])C([H])([H])N(S(=O)(=O)N([H])C(=O)c3c([H])c([H])c4c(c3[H])OC([H])([H])C([H])([H])N4[H])C([H])([H])C2([H])[H])c([H])c1[H]
     RDKit          3D

 51 54  0  0  0  0  0  0  0  0999 V2000
    0.8777   -3.4543    0.4689 O   0  0  0  0  0  0  0  0  0  0  0  0
    0.5290   -2.0367    0.9174 S   0  0  0  0  0  0  0  0  0  0  0  0
    0.9746   -2.0256    2.3955 O   0  0  0  0  0  0  0  0  0  0  0  0
    1.4636   -0.9682    0.0670 N   0  0  0  0  0  0  0  0  0  0  0  0
    1.5158    0.3917    0.3524 C   0  0  0  0  0  0  0  0  0  0  0  0
    3.0036    0.7458    0.5697 C   0  0  0  0  0  0  0  0  0  0  0  0
    3.7974    0.3387   -0.6538 C   0  0  0  0  0  0  0  0  0  0  0  0
    3.5535   -1.0649   -1.0605 C   0  0  0  0  0  0  0  0  0  0  0  0
    2.0568   -1.3234   -1.1626 C   0  0  0  0  0  0  0  0  0  0  0  0
    5.1965    0.6729   -0.4111 C   0  0  0  0  0  0  0  0  0  0  0  0
    5.9754    0.0352    0.5532 C   0  0  0  0  0  0  0  0  0  0  0  0
    7.2927    0.3616    0.7649 C   0  0  0  0  0  0  0  0  0  0  0  0
    7.8712    1.3709   -0.0182 C   0  0  0  0  0  0  0  0  0  0  0  0
    7.1402    2.0279   -0.9824 C   0  0  0  0  0  0  0  0  0  0  0  0
    5.8063    1.6587   -1.1565 C   0  0  0  0  0  0  0  0  0  0  0  0
   -1.1582   -1.8116    0.9089 N   0  0  0  0  0  0  0  0  0  0  0  0
   -1.8294   -0.9273    0.0436 C   0  0  0  0  0  0  0  0  0  0  0  0
   -1.2638   -0.2148   -0.8173 O   0  0  0  0  0  0  0  0  0  0  0  0
   -3.3047   -0.7866    0.1168 C   0  0  0  0  0  0  0  0  0  0  0  0
   -4.0906   -1.8362    0.4914 C   0  0  0  0  0  0  0  0  0  0  0  0
   -5.4752   -1.6537    0.5670 C   0  0  0  0  0  0  0  0  0  0  0  0
   -6.0443   -0.4111    0.2622 C   0  0  0  0  0  0  0  0  0  0  0  0
   -7.4439   -0.2018    0.3311 N   0  0  0  0  0  0  0  0  0  0  0  0
   -8.0554    1.0905    0.2217 C   0  0  0  0  0  0  0  0  0  0  0  0
   -7.1927    2.1158   -0.4397 C   0  0  0  0  0  0  0  0  0  0  0  0
   -5.8154    1.8499   -0.4104 O   0  0  0  0  0  0  0  0  0  0  0  0
   -5.2382    0.6347   -0.1136 C   0  0  0  0  0  0  0  0  0  0  0  0
   -3.8669    0.4326   -0.1823 C   0  0  0  0  0  0  0  0  0  0  0  0
    1.2662    1.0082   -0.5728 H   0  0  0  0  0  0  0  0  0  0  0  0
    0.9804    0.7565    1.2276 H   0  0  0  0  0  0  0  0  0  0  0  0
    3.0367    1.8518    0.6213 H   0  0  0  0  0  0  0  0  0  0  0  0
    3.4059    0.3382    1.4894 H   0  0  0  0  0  0  0  0  0  0  0  0
    3.4137    0.9872   -1.4862 H   0  0  0  0  0  0  0  0  0  0  0  0
    3.9516   -1.8309   -0.3691 H   0  0  0  0  0  0  0  0  0  0  0  0
    3.9362   -1.2030   -2.1045 H   0  0  0  0  0  0  0  0  0  0  0  0
    1.9451   -2.4014   -1.4313 H   0  0  0  0  0  0  0  0  0  0  0  0
    1.6152   -0.6714   -1.9652 H   0  0  0  0  0  0  0  0  0  0  0  0
    5.5377   -0.7460    1.1594 H   0  0  0  0  0  0  0  0  0  0  0  0
    7.8581   -0.1678    1.5296 H   0  0  0  0  0  0  0  0  0  0  0  0
    8.9028    1.5981    0.1757 H   0  0  0  0  0  0  0  0  0  0  0  0
    7.6224    2.7973   -1.5601 H   0  0  0  0  0  0  0  0  0  0  0  0
    5.2719    2.2235   -1.9407 H   0  0  0  0  0  0  0  0  0  0  0  0
   -1.7024   -2.3931    1.6138 H   0  0  0  0  0  0  0  0  0  0  0  0
   -3.6464   -2.7872    0.7240 H   0  0  0  0  0  0  0  0  0  0  0  0
   -6.1422   -2.4586    0.8581 H   0  0  0  0  0  0  0  0  0  0  0  0
   -8.0682   -1.0364    0.4660 H   0  0  0  0  0  0  0  0  0  0  0  0
   -8.3323    1.4819    1.2314 H   0  0  0  0  0  0  0  0  0  0  0  0
   -9.0243    0.9477   -0.3369 H   0  0  0  0  0  0  0  0  0  0  0  0
   -7.4927    2.2893   -1.5199 H   0  0  0  0  0  0  0  0  0  0  0  0
   -7.3524    3.1157    0.0596 H   0  0  0  0  0  0  0  0  0  0  0  0
   -3.2591    1.2898   -0.4870 H   0  0  0  0  0  0  0  0  0  0  0  0
  1  2  2  0
  2  3  2  0
  2  4  1  0
  4  5  1  0
  5  6  1  0
  6  7  1  0
  7  8  1  0
  8  9  1  0
  7 10  1  0
 10 11  2  0
 11 12  1  0
 12 13  2  0
 13 14  1  0
 14 15  2  0
  2 16  1  0
 16 17  1  0
 17 18  2  0
 17 19  1  0
 19 20  2  0
 20 21  1  0
 21 22  2  0
 22 23  1  0
 23 24  1  0
 24 25  1  0
 25 26  1  0
 26 27  1  0
 27 28  2  0
  9  4  1  0
 15 10  1  0
 28 19  1  0
 27 22  1  0
  5 29  1  0
  5 30  1  0
  6 31  1  0
  6 32  1  0
  7 33  1  0
  8 34  1  0
  8 35  1  0
  9 36  1  0
  9 37  1  0
 11 38  1  0
 12 39  1  0
 13 40  1  0
 14 41  1  0
 15 42  1  0
 16 43  1  0
 20 44  1  0
 21 45  1  0
 23 46  1  0
 24 47  1  0
 24 48  1  0
 25 49  1  0
 25 50  1  0
 28 51  1  0
M  END
$$$$
[H]Oc1c([H])c(C([H])([H])[H])c(C([H])([H])C(=O)N2C([H])([H])C([H])([H])N(C([H])([H])[H])[C@]3(C(=O)C([H])([H])N(C([H])([H])c4c([H])c([H])c([H])c([H])c4[H])C([H])([H])C3([H])[H])[C@]2([H])c2c([H])c([H])c([H])c([H])c2[H])c(C([H])([H])[H])c1[H]
     RDKit          3D

 75 79  0  0  0  0  0  0  0  0999 V2000
    2.2376    2.1319   -1.3827 C   0  0  0  0  0  0  0  0  0  0  0  0
    1.1240    1.5058   -0.9139 N   0  0  0  0  0  0  0  0  0  0  0  0
    0.0257    2.3705   -0.7370 C   0  0  0  0  0  0  0  0  0  0  0  0
   -1.1907    1.8532   -1.4234 C   0  0  0  0  0  0  0  0  0  0  0  0
   -1.4166    0.4863   -0.8597 N   0  0  0  0  0  0  0  0  0  0  0  0
   -0.3460   -0.4191   -1.2235 C   0  0  1  0  0  0  0  0  0  0  0  0
   -0.4840   -0.6676   -2.6426 C   0  0  0  0  0  0  0  0  0  0  0  0
   -1.6775   -1.2777   -3.0251 C   0  0  0  0  0  0  0  0  0  0  0  0
   -1.9557   -1.5576   -4.3650 C   0  0  0  0  0  0  0  0  0  0  0  0
   -1.0717   -1.2476   -5.3685 C   0  0  0  0  0  0  0  0  0  0  0  0
    0.1032   -0.6475   -5.0033 C   0  0  0  0  0  0  0  0  0  0  0  0
    0.3647   -0.3750   -3.6630 C   0  0  0  0  0  0  0  0  0  0  0  0
    0.9180    0.1414   -0.6795 C   0  0  2  0  0  0  0  0  0  0  0  0
    0.7323    0.0898    0.8697 C   0  0  0  0  0  0  0  0  0  0  0  0
    1.9342   -0.5092    1.5642 C   0  0  0  0  0  0  0  0  0  0  0  0
    3.2053    0.0334    1.1406 N   0  0  0  0  0  0  0  0  0  0  0  0
    4.2252   -0.4929    2.0116 C   0  0  0  0  0  0  0  0  0  0  0  0
    5.5786    0.0219    1.7268 C   0  0  0  0  0  0  0  0  0  0  0  0
    5.9511    1.2638    2.2544 C   0  0  0  0  0  0  0  0  0  0  0  0
    7.2269    1.7664    2.0040 C   0  0  0  0  0  0  0  0  0  0  0  0
    8.1370    1.0790    1.2503 C   0  0  0  0  0  0  0  0  0  0  0  0
    7.7817   -0.1424    0.7261 C   0  0  0  0  0  0  0  0  0  0  0  0
    6.5156   -0.6336    0.9789 C   0  0  0  0  0  0  0  0  0  0  0  0
    3.4124   -0.4044   -0.2363 C   0  0  0  0  0  0  0  0  0  0  0  0
    2.1060   -0.7217   -0.8337 C   0  0  0  0  0  0  0  0  0  0  0  0
    2.0082   -1.7397   -1.4753 O   0  0  0  0  0  0  0  0  0  0  0  0
   -2.5615    0.3140   -0.1238 C   0  0  0  0  0  0  0  0  0  0  0  0
   -3.3480    1.3368    0.0125 O   0  0  0  0  0  0  0  0  0  0  0  0
   -3.0492   -0.8935    0.5565 C   0  0  0  0  0  0  0  0  0  0  0  0
   -4.3639   -0.6781    1.2352 C   0  0  0  0  0  0  0  0  0  0  0  0
   -5.5456   -0.6245    0.5302 C   0  0  0  0  0  0  0  0  0  0  0  0
   -5.5678   -0.7884   -0.9404 C   0  0  0  0  0  0  0  0  0  0  0  0
   -6.7700   -0.4156    1.1798 C   0  0  0  0  0  0  0  0  0  0  0  0
   -6.8278   -0.2567    2.5531 C   0  0  0  0  0  0  0  0  0  0  0  0
   -8.0491   -0.0486    3.2030 O   0  0  0  0  0  0  0  0  0  0  0  0
   -5.6431   -0.3120    3.2508 C   0  0  0  0  0  0  0  0  0  0  0  0
   -4.4422   -0.5169    2.6107 C   0  0  0  0  0  0  0  0  0  0  0  0
   -3.2038   -0.5697    3.4127 C   0  0  0  0  0  0  0  0  0  0  0  0
    2.8054    1.6682   -2.2180 H   0  0  0  0  0  0  0  0  0  0  0  0
    1.9215    3.1296   -1.8445 H   0  0  0  0  0  0  0  0  0  0  0  0
    2.9653    2.4504   -0.6097 H   0  0  0  0  0  0  0  0  0  0  0  0
   -0.2175    2.6556    0.3006 H   0  0  0  0  0  0  0  0  0  0  0  0
    0.2714    3.3544   -1.2381 H   0  0  0  0  0  0  0  0  0  0  0  0
   -0.9705    1.6830   -2.4937 H   0  0  0  0  0  0  0  0  0  0  0  0
   -2.0829    2.4876   -1.2783 H   0  0  0  0  0  0  0  0  0  0  0  0
   -0.5535   -1.3699   -0.7001 H   0  0  0  0  0  0  0  0  0  0  0  0
   -2.4559   -1.5791   -2.3534 H   0  0  0  0  0  0  0  0  0  0  0  0
   -2.8888   -2.0349   -4.6669 H   0  0  0  0  0  0  0  0  0  0  0  0
   -1.2712   -1.4587   -6.4163 H   0  0  0  0  0  0  0  0  0  0  0  0
    0.8664   -0.3645   -5.7333 H   0  0  0  0  0  0  0  0  0  0  0  0
    1.2810    0.1011   -3.4193 H   0  0  0  0  0  0  0  0  0  0  0  0
   -0.0968   -0.5890    1.1526 H   0  0  0  0  0  0  0  0  0  0  0  0
    0.5400    1.0619    1.3087 H   0  0  0  0  0  0  0  0  0  0  0  0
    1.9253   -1.6251    1.5392 H   0  0  0  0  0  0  0  0  0  0  0  0
    1.8260   -0.2409    2.6359 H   0  0  0  0  0  0  0  0  0  0  0  0
    3.9529   -0.3300    3.0811 H   0  0  0  0  0  0  0  0  0  0  0  0
    4.2990   -1.6179    1.9052 H   0  0  0  0  0  0  0  0  0  0  0  0
    5.2968    1.8542    2.8497 H   0  0  0  0  0  0  0  0  0  0  0  0
    7.5278    2.7350    2.4136 H   0  0  0  0  0  0  0  0  0  0  0  0
    9.1441    1.4905    1.0624 H   0  0  0  0  0  0  0  0  0  0  0  0
    8.5056   -0.6864    0.1287 H   0  0  0  0  0  0  0  0  0  0  0  0
    6.2792   -1.6032    0.5515 H   0  0  0  0  0  0  0  0  0  0  0  0
    4.0301   -1.3433   -0.1471 H   0  0  0  0  0  0  0  0  0  0  0  0
    4.0432    0.3157   -0.7219 H   0  0  0  0  0  0  0  0  0  0  0  0
   -2.3207   -1.2541    1.3211 H   0  0  0  0  0  0  0  0  0  0  0  0
   -3.1876   -1.7346   -0.1425 H   0  0  0  0  0  0  0  0  0  0  0  0
   -6.1651    0.0340   -1.3982 H   0  0  0  0  0  0  0  0  0  0  0  0
   -6.1274   -1.7481   -1.1312 H   0  0  0  0  0  0  0  0  0  0  0  0
   -4.5753   -0.8998   -1.3700 H   0  0  0  0  0  0  0  0  0  0  0  0
   -7.6963   -0.3714    0.6365 H   0  0  0  0  0  0  0  0  0  0  0  0
   -8.6053   -0.8148    3.5422 H   0  0  0  0  0  0  0  0  0  0  0  0
   -5.6559   -0.1896    4.3377 H   0  0  0  0  0  0  0  0  0  0  0  0
   -2.5053    0.1968    3.0454 H   0  0  0  0  0  0  0  0  0  0  0  0
   -3.4282   -0.3183    4.4775 H   0  0  0  0  0  0  0  0  0  0  0  0
   -2.7505   -1.5851    3.4185 H   0  0  0  0  0  0  0  0  0  0  0  0
  1  2  1  0
  2  3  1  0
  3  4  1  0
  4  5  1  0
  5  6  1  0
  6  7  1  0
  7  8  2  0
  8  9  1  0
  9 10  2  0
 10 11  1  0
 11 12  2  0
  6 13  1  0
 13 14  1  0
 14 15  1  0
 15 16  1  0
 16 17  1  0
 17 18  1  0
 18 19  2  0
 19 20  1  0
 20 21  2  0
 21 22  1  0
 22 23  2  0
 16 24  1  0
 24 25  1  0
 25 26  2  0
  5 27  1  0
 27 28  2  0
 27 29  1  0
 29 30  1  0
 30 31  2  0
 31 32  1  0
 31 33  1  0
 33 34  2  0
 34 35  1  0
 34 36  1  0
 36 37  2  0
 37 38  1  0
 13  2  1  0
 13 25  1  1
 37 30  1  0
 12  7  1  0
 23 18  1  0
  1 39  1  0
  1 40  1  0
  1 41  1  0
  3 42  1  0
  3 43  1  0
  4 44  1  0
  4 45  1  0
  6 46  1  1
  8 47  1  0
  9 48  1  0
 10 49  1  0
 11 50  1  0
 12 51  1  0
 14 52  1  0
 14 53  1  0
 15 54  1  0
 15 55  1  0
 17 56  1  0
 17 57  1  0
 19 58  1  0
 20 59  1  0
 21 60  1  0
 22 61  1  0
 23 62  1  0
 24 63  1  0
 24 64  1  0
 29 65  1  0
 29 66  1  0
 32 67  1  0
 32 68  1  0
 32 69  1  0
 33 70  1  0
 35 71  1  0
 36 72  1  0
 38 73  1  0
 38 74  1  0
 38 75  1  0
M  END
$$$$
[H]OP(=O)(OC(F)(F)F)OC([H])([H])[C@]([H])(c1c([H])c([H])c([H])c([H])c1[H])N([H])C(=O)[C@@]([H])(c1nc([H])c([H])c([H])c1[H])N([H])C(=O)C([H])([H])N([H])C(=O)c1c([H])c([H])c(Cl)c([H])c1[H]
     RDKit          3D

 64 66  0  0  0  0  0  0  0  0999 V2000
   -8.2503    3.7228    0.7277 F   0  0  0  0  0  0  0  0  0  0  0  0
   -7.0656    4.0084    0.0858 C   0  0  0  0  0  0  0  0  0  0  0  0
   -6.9133    5.3926    0.0369 F   0  0  0  0  0  0  0  0  0  0  0  0
   -7.1009    3.4872   -1.2034 F   0  0  0  0  0  0  0  0  0  0  0  0
   -6.0509    3.4017    0.7847 O   0  0  0  0  0  0  0  0  0  0  0  0
   -4.5214    3.6648    0.1106 P   0  0  0  0  0  0  0  0  0  0  0  0
   -3.4001    3.9122    1.3532 O   0  0  0  0  0  0  0  0  0  0  0  0
   -4.5279    4.8522   -0.8190 O   0  0  0  0  0  0  0  0  0  0  0  0
   -4.0783    2.2812   -0.7316 O   0  0  0  0  0  0  0  0  0  0  0  0
   -3.0633    1.6071   -0.0618 C   0  0  0  0  0  0  0  0  0  0  0  0
   -2.6762    0.3452   -0.8485 C   0  0  1  0  0  0  0  0  0  0  0  0
   -1.6285   -0.3744   -0.1863 N   0  0  0  0  0  0  0  0  0  0  0  0
   -0.3485   -0.6192   -0.7102 C   0  0  0  0  0  0  0  0  0  0  0  0
   -0.0627   -0.1921   -1.8413 O   0  0  0  0  0  0  0  0  0  0  0  0
    0.6604   -1.3734    0.0577 C   0  0  1  0  0  0  0  0  0  0  0  0
    0.1321   -2.6762    0.5422 C   0  0  0  0  0  0  0  0  0  0  0  0
    0.1267   -3.7929   -0.2836 C   0  0  0  0  0  0  0  0  0  0  0  0
   -0.3627   -4.9750    0.1753 C   0  0  0  0  0  0  0  0  0  0  0  0
   -0.8603   -5.0982    1.4548 C   0  0  0  0  0  0  0  0  0  0  0  0
   -0.8308   -3.9517    2.2380 C   0  0  0  0  0  0  0  0  0  0  0  0
   -0.3483   -2.7755    1.7932 N   0  0  0  0  0  0  0  0  0  0  0  0
    1.9099   -1.5248   -0.6523 N   0  0  0  0  0  0  0  0  0  0  0  0
    3.1289   -0.9296   -0.1923 C   0  0  0  0  0  0  0  0  0  0  0  0
    3.1671   -0.2395    0.8614 O   0  0  0  0  0  0  0  0  0  0  0  0
    4.3853   -1.1133   -0.9522 C   0  0  0  0  0  0  0  0  0  0  0  0
    5.4841   -0.4111   -0.3320 N   0  0  0  0  0  0  0  0  0  0  0  0
    5.5450    0.9941   -0.1714 C   0  0  0  0  0  0  0  0  0  0  0  0
    4.5794    1.6823   -0.6039 O   0  0  0  0  0  0  0  0  0  0  0  0
    6.6968    1.5972    0.4742 C   0  0  0  0  0  0  0  0  0  0  0  0
    6.9052    1.5194    1.8301 C   0  0  0  0  0  0  0  0  0  0  0  0
    8.0278    2.1062    2.4132 C   0  0  0  0  0  0  0  0  0  0  0  0
    8.9544    2.7772    1.6493 C   0  0  0  0  0  0  0  0  0  0  0  0
   10.3817    3.5316    2.3503 Cl  0  0  0  0  0  0  0  0  0  0  0  0
    8.7556    2.8614    0.2898 C   0  0  0  0  0  0  0  0  0  0  0  0
    7.6471    2.2825   -0.2897 C   0  0  0  0  0  0  0  0  0  0  0  0
   -3.9189   -0.4796   -0.9791 C   0  0  0  0  0  0  0  0  0  0  0  0
   -4.6395   -0.5277   -2.1501 C   0  0  0  0  0  0  0  0  0  0  0  0
   -5.7992   -1.2920   -2.2834 C   0  0  0  0  0  0  0  0  0  0  0  0
   -6.2612   -2.0344   -1.2193 C   0  0  0  0  0  0  0  0  0  0  0  0
   -5.5478   -1.9936   -0.0426 C   0  0  0  0  0  0  0  0  0  0  0  0
   -4.3899   -1.2275    0.0828 C   0  0  0  0  0  0  0  0  0  0  0  0
   -3.6859    3.3094    2.1044 H   0  0  0  0  0  0  0  0  0  0  0  0
   -2.1761    2.2374   -0.0286 H   0  0  0  0  0  0  0  0  0  0  0  0
   -3.3565    1.3617    0.9791 H   0  0  0  0  0  0  0  0  0  0  0  0
   -2.3322    0.6787   -1.8276 H   0  0  0  0  0  0  0  0  0  0  0  0
   -1.8524   -0.7408    0.7669 H   0  0  0  0  0  0  0  0  0  0  0  0
    0.8741   -0.7643    0.9619 H   0  0  0  0  0  0  0  0  0  0  0  0
    0.5367   -3.6196   -1.2818 H   0  0  0  0  0  0  0  0  0  0  0  0
   -0.3452   -5.8306   -0.5192 H   0  0  0  0  0  0  0  0  0  0  0  0
   -1.2501   -6.0406    1.8187 H   0  0  0  0  0  0  0  0  0  0  0  0
   -1.2291   -4.0676    3.2468 H   0  0  0  0  0  0  0  0  0  0  0  0
    1.9634   -2.0793   -1.5318 H   0  0  0  0  0  0  0  0  0  0  0  0
    4.6686   -2.2008   -0.9776 H   0  0  0  0  0  0  0  0  0  0  0  0
    4.2762   -0.7921   -2.0137 H   0  0  0  0  0  0  0  0  0  0  0  0
    6.3131   -0.9721    0.0347 H   0  0  0  0  0  0  0  0  0  0  0  0
    6.2069    1.0039    2.4753 H   0  0  0  0  0  0  0  0  0  0  0  0
    8.1797    2.0355    3.4946 H   0  0  0  0  0  0  0  0  0  0  0  0
    9.4655    3.3860   -0.3691 H   0  0  0  0  0  0  0  0  0  0  0  0
    7.4479    2.3240   -1.3694 H   0  0  0  0  0  0  0  0  0  0  0  0
   -4.2778    0.0585   -2.9978 H   0  0  0  0  0  0  0  0  0  0  0  0
   -6.3134   -1.2806   -3.2371 H   0  0  0  0  0  0  0  0  0  0  0  0
   -7.1701   -2.6322   -1.3254 H   0  0  0  0  0  0  0  0  0  0  0  0
   -5.9348   -2.5870    0.7750 H   0  0  0  0  0  0  0  0  0  0  0  0
   -3.8495   -1.2130    1.0177 H   0  0  0  0  0  0  0  0  0  0  0  0
  1  2  1  0
  2  3  1  0
  2  4  1  0
  2  5  1  0
  5  6  1  0
  6  7  1  0
  6  8  2  0
  6  9  1  0
  9 10  1  0
 10 11  1  0
 11 12  1  0
 12 13  1  0
 13 14  2  0
 13 15  1  0
 15 16  1  0
 16 17  2  0
 17 18  1  0
 18 19  2  0
 19 20  1  0
 20 21  2  0
 15 22  1  0
 22 23  1  0
 23 24  2  0
 23 25  1  0
 25 26  1  0
 26 27  1  0
 27 28  2  0
 27 29  1  0
 29 30  2  0
 30 31  1  0
 31 32  2  0
 32 33  1  0
 32 34  1  0
 34 35  2  0
 11 36  1  0
 36 37  2  0
 37 38  1  0
 38 39  2  0
 39 40  1  0
 40 41  2  0
 21 16  1  0
 35 29  1  0
 41 36  1  0
  7 42  1  0
 10 43  1  0
 10 44  1  0
 11 45  1  6
 12 46  1  0
 15 47  1  1
 17 48  1  0
 18 49  1  0
 19 50  1  0
 20 51  1  0
 22 52  1  0
 25 53  1  0
 25 54  1  0
 26 55  1  0
 30 56  1  0
 31 57  1  0
 34 58  1  0
 35 59  1  0
 37 60  1  0
 38 61  1  0
 39 62  1  0
 40 63  1  0
 41 64  1  0
M  END
$$$$
[H]OC(=O)C([H])([H])Oc1c([H])c([H])c(C([H])([H])C([H])([H])C([H])([H])N([H])C(=O)N(C(=O)N([H])[C@]([H])(C(=O)O[H])C([H])([H])C([H])([H])c2c([H])c([H])c([H])c([H])c2[H])C([H])([H])C([H])([H])C([H])([H])C([H])([H])C([H])([H])C([H])([H])C([H])([H])C([H])([H])C([H])([H])[H])c([H])c1F
     RDKit          3D

 87 88  0  0  0  0  0  0  0  0999 V2000
   -1.1322    8.4077   -0.0686 C   0  0  0  0  0  0  0  0  0  0  0  0
   -2.3679    8.0263    0.6965 C   0  0  0  0  0  0  0  0  0  0  0  0
   -2.2720    6.7174    1.4292 C   0  0  0  0  0  0  0  0  0  0  0  0
   -1.9860    5.5458    0.5158 C   0  0  0  0  0  0  0  0  0  0  0  0
   -1.9487    4.3167    1.4395 C   0  0  0  0  0  0  0  0  0  0  0  0
   -1.6306    3.0526    0.6140 C   0  0  0  0  0  0  0  0  0  0  0  0
   -1.6356    1.8289    1.5390 C   0  0  0  0  0  0  0  0  0  0  0  0
   -1.3444    0.6115    0.7173 C   0  0  0  0  0  0  0  0  0  0  0  0
   -1.3943   -0.6279    1.5967 C   0  0  0  0  0  0  0  0  0  0  0  0
   -1.1171   -1.7568    0.6741 N   0  0  0  0  0  0  0  0  0  0  0  0
   -2.2133   -2.3678    0.0339 C   0  0  0  0  0  0  0  0  0  0  0  0
   -3.3947   -1.8497    0.1831 O   0  0  0  0  0  0  0  0  0  0  0  0
   -2.1673   -3.5083   -0.7589 N   0  0  0  0  0  0  0  0  0  0  0  0
   -3.3798   -4.0728   -1.3861 C   0  0  1  0  0  0  0  0  0  0  0  0
   -3.1945   -4.3387   -2.8284 C   0  0  0  0  0  0  0  0  0  0  0  0
   -2.1206   -5.2535   -3.2581 C   0  0  0  0  0  0  0  0  0  0  0  0
   -2.2671   -6.6180   -2.7664 C   0  0  0  0  0  0  0  0  0  0  0  0
   -3.0734   -7.5011   -3.5052 C   0  0  0  0  0  0  0  0  0  0  0  0
   -3.1841   -8.8132   -3.0936 C   0  0  0  0  0  0  0  0  0  0  0  0
   -2.5241   -9.2509   -1.9860 C   0  0  0  0  0  0  0  0  0  0  0  0
   -1.7386   -8.4287   -1.2470 C   0  0  0  0  0  0  0  0  0  0  0  0
   -1.6211   -7.1032   -1.6585 C   0  0  0  0  0  0  0  0  0  0  0  0
   -4.0694   -5.0399   -0.5586 C   0  0  0  0  0  0  0  0  0  0  0  0
   -5.1880   -5.7549   -0.9002 O   0  0  0  0  0  0  0  0  0  0  0  0
   -3.5970   -5.2545    0.6147 O   0  0  0  0  0  0  0  0  0  0  0  0
    0.2105   -2.1579    0.5295 C   0  0  0  0  0  0  0  0  0  0  0  0
    0.5073   -2.9856   -0.3957 O   0  0  0  0  0  0  0  0  0  0  0  0
    1.2364   -1.6820    1.3831 N   0  0  0  0  0  0  0  0  0  0  0  0
    2.5926   -2.1585    1.1118 C   0  0  0  0  0  0  0  0  0  0  0  0
    3.5681   -1.8820    2.1567 C   0  0  0  0  0  0  0  0  0  0  0  0
    3.8649   -0.5629    2.7016 C   0  0  0  0  0  0  0  0  0  0  0  0
    4.3712    0.4446    1.7711 C   0  0  0  0  0  0  0  0  0  0  0  0
    4.1425    1.8111    2.0551 C   0  0  0  0  0  0  0  0  0  0  0  0
    4.6266    2.8076    1.2533 C   0  0  0  0  0  0  0  0  0  0  0  0
    5.3572    2.5396    0.1340 C   0  0  0  0  0  0  0  0  0  0  0  0
    5.8844    3.5251   -0.6891 O   0  0  0  0  0  0  0  0  0  0  0  0
    5.8381    4.8129   -0.5733 C   0  0  0  0  0  0  0  0  0  0  0  0
    5.5869    6.1875   -0.4710 C   0  0  0  0  0  0  0  0  0  0  0  0
    4.5318    6.9392   -0.8747 O   0  0  0  0  0  0  0  0  0  0  0  0
    6.5249    6.9177    0.1166 O   0  0  0  0  0  0  0  0  0  0  0  0
    5.5850    1.2240   -0.1715 C   0  0  0  0  0  0  0  0  0  0  0  0
    6.2975    0.9046   -1.3178 F   0  0  0  0  0  0  0  0  0  0  0  0
    5.0989    0.2015    0.6376 C   0  0  0  0  0  0  0  0  0  0  0  0
   -1.1425    7.8858   -1.0797 H   0  0  0  0  0  0  0  0  0  0  0  0
   -1.2644    9.4972   -0.3470 H   0  0  0  0  0  0  0  0  0  0  0  0
   -0.1888    8.2728    0.4695 H   0  0  0  0  0  0  0  0  0  0  0  0
   -2.6283    8.8254    1.4471 H   0  0  0  0  0  0  0  0  0  0  0  0
   -3.2356    8.0143   -0.0188 H   0  0  0  0  0  0  0  0  0  0  0  0
   -1.6083    6.7016    2.2898 H   0  0  0  0  0  0  0  0  0  0  0  0
   -3.3072    6.5389    1.8581 H   0  0  0  0  0  0  0  0  0  0  0  0
   -1.0071    5.6082    0.0409 H   0  0  0  0  0  0  0  0  0  0  0  0
   -2.8250    5.4103   -0.1643 H   0  0  0  0  0  0  0  0  0  0  0  0
   -1.0792    4.4425    2.1333 H   0  0  0  0  0  0  0  0  0  0  0  0
   -2.9162    4.1921    1.9401 H   0  0  0  0  0  0  0  0  0  0  0  0
   -2.4221    2.9121   -0.1392 H   0  0  0  0  0  0  0  0  0  0  0  0
   -0.6318    3.1841    0.1734 H   0  0  0  0  0  0  0  0  0  0  0  0
   -0.9640    1.9802    2.3786 H   0  0  0  0  0  0  0  0  0  0  0  0
   -2.6925    1.7288    1.9141 H   0  0  0  0  0  0  0  0  0  0  0  0
   -2.1235    0.4933   -0.0662 H   0  0  0  0  0  0  0  0  0  0  0  0
   -0.3095    0.6553    0.2804 H   0  0  0  0  0  0  0  0  0  0  0  0
   -0.6797   -0.5592    2.3856 H   0  0  0  0  0  0  0  0  0  0  0  0
   -2.4250   -0.7810    2.0120 H   0  0  0  0  0  0  0  0  0  0  0  0
   -1.3089   -4.0574   -0.9764 H   0  0  0  0  0  0  0  0  0  0  0  0
   -4.0921   -3.1422   -1.3644 H   0  0  0  0  0  0  0  0  0  0  0  0
   -3.0838   -3.3893   -3.4499 H   0  0  0  0  0  0  0  0  0  0  0  0
   -4.2116   -4.7152   -3.2089 H   0  0  0  0  0  0  0  0  0  0  0  0
   -1.1011   -4.9082   -2.8688 H   0  0  0  0  0  0  0  0  0  0  0  0
   -1.9640   -5.2632   -4.3639 H   0  0  0  0  0  0  0  0  0  0  0  0
   -3.5909   -7.1181   -4.3688 H   0  0  0  0  0  0  0  0  0  0  0  0
   -3.8175   -9.4806   -3.6926 H   0  0  0  0  0  0  0  0  0  0  0  0
   -2.6409  -10.3124   -1.6976 H   0  0  0  0  0  0  0  0  0  0  0  0
   -1.2453   -8.8276   -0.3646 H   0  0  0  0  0  0  0  0  0  0  0  0
   -0.9787   -6.4486   -1.0853 H   0  0  0  0  0  0  0  0  0  0  0  0
   -6.0505   -5.4967   -0.3747 H   0  0  0  0  0  0  0  0  0  0  0  0
    1.0822   -1.0482    2.1483 H   0  0  0  0  0  0  0  0  0  0  0  0
    2.4452   -3.2655    0.9171 H   0  0  0  0  0  0  0  0  0  0  0  0
    2.8777   -1.6629    0.1467 H   0  0  0  0  0  0  0  0  0  0  0  0
    4.5570   -2.3814    1.7700 H   0  0  0  0  0  0  0  0  0  0  0  0
    3.3455   -2.6218    3.0323 H   0  0  0  0  0  0  0  0  0  0  0  0
    2.9222   -0.1325    3.2219 H   0  0  0  0  0  0  0  0  0  0  0  0
    4.6238   -0.6984    3.5365 H   0  0  0  0  0  0  0  0  0  0  0  0
    3.5644    2.0222    2.9598 H   0  0  0  0  0  0  0  0  0  0  0  0
    4.3924    3.8452    1.5394 H   0  0  0  0  0  0  0  0  0  0  0  0
    7.1237    4.9288   -0.9267 H   0  0  0  0  0  0  0  0  0  0  0  0
    5.6486    4.9653   -1.9488 H   0  0  0  0  0  0  0  0  0  0  0  0
    4.3868    7.1841   -1.8317 H   0  0  0  0  0  0  0  0  0  0  0  0
    5.3035   -0.8322    0.3477 H   0  0  0  0  0  0  0  0  0  0  0  0
  1  2  1  0
  2  3  1  0
  3  4  1  0
  4  5  1  0
  5  6  1  0
  6  7  1  0
  7  8  1  0
  8  9  1  0
  9 10  1  0
 10 11  1  0
 11 12  2  0
 11 13  1  0
 13 14  1  0
 14 15  1  0
 15 16  1  0
 16 17  1  0
 17 18  2  0
 18 19  1  0
 19 20  2  0
 20 21  1  0
 21 22  2  0
 14 23  1  0
 23 24  1  0
 23 25  2  0
 10 26  1  0
 26 27  2  0
 26 28  1  0
 28 29  1  0
 29 30  1  0
 30 31  1  0
 31 32  1  0
 32 33  2  0
 33 34  1  0
 34 35  2  0
 35 36  1  0
 36 37  1  0
 37 38  1  0
 38 39  1  0
 38 40  2  0
 35 41  1  0
 41 42  1  0
 41 43  2  0
 22 17  1  0
 43 32  1  0
  1 44  1  0
  1 45  1  0
  1 46  1  0
  2 47  1  0
  2 48  1  0
  3 49  1  0
  3 50  1  0
  4 51  1  0
  4 52  1  0
  5 53  1  0
  5 54  1  0
  6 55  1  0
  6 56  1  0
  7 57  1  0
  7 58  1  0
  8 59  1  0
  8 60  1  0
  9 61  1  0
  9 62  1  0
 13 63  1  0
 14 64  1  6
 15 65  1  0
 15 66  1  0
 16 67  1  0
 16 68  1  0
 18 69  1  0
 19 70  1  0
 20 71  1  0
 21 72  1  0
 22 73  1  0
 24 74  1  0
 28 75  1  0
 29 76  1  0
 29 77  1  0
 30 78  1  0
 30 79  1  0
 31 80  1  0
 31 81  1  0
 33 82  1  0
 34 83  1  0
 37 84  1  0
 37 85  1  0
 39 86  1  0
 43 87  1  0
M  END
$$$$
[H]Oc1c([H])c([H])c(/C([H])=C(\[H])C(=O)N([H])[H])c([H])c1Oc1c([H])c([H])c(OC([H])([H])c2c([H])c([H])c([H])c([H])c2[H])c([H])c1[H]
     RDKit          3D

 46 48  0  0  0  0  0  0  0  0999 V2000
    7.5223    2.7004   -0.2298 N   0  0  0  0  0  0  0  0  0  0  0  0
    7.0693    1.6344    0.5668 C   0  0  0  0  0  0  0  0  0  0  0  0
    7.7466    1.2622    1.5614 O   0  0  0  0  0  0  0  0  0  0  0  0
    5.8023    0.9468    0.2450 C   0  0  0  0  0  0  0  0  0  0  0  0
    5.3640   -0.0537    0.9814 C   0  0  0  0  0  0  0  0  0  0  0  0
    4.1315   -0.7875    0.7403 C   0  0  0  0  0  0  0  0  0  0  0  0
    3.7983   -1.8212    1.6038 C   0  0  0  0  0  0  0  0  0  0  0  0
    2.6506   -2.5438    1.4214 C   0  0  0  0  0  0  0  0  0  0  0  0
    1.8013   -2.2426    0.3568 C   0  0  0  0  0  0  0  0  0  0  0  0
    0.6635   -2.9905    0.1966 O   0  0  0  0  0  0  0  0  0  0  0  0
    2.1084   -1.2202   -0.5129 C   0  0  0  0  0  0  0  0  0  0  0  0
    1.3498   -0.8394   -1.5853 O   0  0  0  0  0  0  0  0  0  0  0  0
    0.0865   -0.2939   -1.5763 C   0  0  0  0  0  0  0  0  0  0  0  0
   -0.5495    0.1249   -0.4313 C   0  0  0  0  0  0  0  0  0  0  0  0
   -1.8345    0.6724   -0.4788 C   0  0  0  0  0  0  0  0  0  0  0  0
   -2.5095    0.8123   -1.6692 C   0  0  0  0  0  0  0  0  0  0  0  0
   -3.7701    1.3361   -1.8103 O   0  0  0  0  0  0  0  0  0  0  0  0
   -4.6245    1.8169   -0.8321 C   0  0  0  0  0  0  0  0  0  0  0  0
   -5.0270    0.7999    0.1919 C   0  0  0  0  0  0  0  0  0  0  0  0
   -4.9611   -0.5425   -0.0787 C   0  0  0  0  0  0  0  0  0  0  0  0
   -5.3314   -1.4627    0.8646 C   0  0  0  0  0  0  0  0  0  0  0  0
   -5.7866   -1.1053    2.1259 C   0  0  0  0  0  0  0  0  0  0  0  0
   -5.8409    0.2550    2.3663 C   0  0  0  0  0  0  0  0  0  0  0  0
   -5.4736    1.1902    1.4320 C   0  0  0  0  0  0  0  0  0  0  0  0
   -1.8623    0.3884   -2.8177 C   0  0  0  0  0  0  0  0  0  0  0  0
   -0.5932   -0.1534   -2.7805 C   0  0  0  0  0  0  0  0  0  0  0  0
    3.2799   -0.5108   -0.2972 C   0  0  0  0  0  0  0  0  0  0  0  0
    7.1088    2.8793   -1.1732 H   0  0  0  0  0  0  0  0  0  0  0  0
    8.2757    3.3338    0.0980 H   0  0  0  0  0  0  0  0  0  0  0  0
    5.2362    1.2666   -0.5960 H   0  0  0  0  0  0  0  0  0  0  0  0
    5.9921   -0.3295    1.8264 H   0  0  0  0  0  0  0  0  0  0  0  0
    4.4720   -2.0542    2.4417 H   0  0  0  0  0  0  0  0  0  0  0  0
    2.4202   -3.3461    2.1158 H   0  0  0  0  0  0  0  0  0  0  0  0
    0.0509   -2.8336   -0.5754 H   0  0  0  0  0  0  0  0  0  0  0  0
   -0.0405    0.0265    0.5251 H   0  0  0  0  0  0  0  0  0  0  0  0
   -2.3070    0.9977    0.4292 H   0  0  0  0  0  0  0  0  0  0  0  0
   -5.5631    2.1462   -1.3230 H   0  0  0  0  0  0  0  0  0  0  0  0
   -4.2303    2.6800   -0.2621 H   0  0  0  0  0  0  0  0  0  0  0  0
   -4.6160   -0.8700   -1.0390 H   0  0  0  0  0  0  0  0  0  0  0  0
   -5.2885   -2.5444    0.6743 H   0  0  0  0  0  0  0  0  0  0  0  0
   -6.0796   -1.8313    2.8726 H   0  0  0  0  0  0  0  0  0  0  0  0
   -6.1981    0.5610    3.3578 H   0  0  0  0  0  0  0  0  0  0  0  0
   -5.5347    2.2571    1.6706 H   0  0  0  0  0  0  0  0  0  0  0  0
   -2.3513    0.4791   -3.7666 H   0  0  0  0  0  0  0  0  0  0  0  0
   -0.0873   -0.4854   -3.6831 H   0  0  0  0  0  0  0  0  0  0  0  0
    3.5302    0.2947   -0.9780 H   0  0  0  0  0  0  0  0  0  0  0  0
  1  2  1  0
  2  3  2  0
  2  4  1  0
  4  5  2  0
  5  6  1  0
  6  7  2  0
  7  8  1  0
  8  9  2  0
  9 10  1  0
  9 11  1  0
 11 12  1  0
 12 13  1  0
 13 14  2  0
 14 15  1  0
 15 16  2  0
 16 17  1  0
 17 18  1  0
 18 19  1  0
 19 20  2  0
 20 21  1  0
 21 22  2  0
 22 23  1  0
 23 24  2  0
 16 25  1  0
 25 26  2  0
 11 27  2  0
 27  6  1  0
 26 13  1  0
 24 19  1  0
  1 28  1  0
  1 29  1  0
  4 30  1  0
  5 31  1  0
  7 32  1  0
  8 33  1  0
 10 34  1  0
 14 35  1  0
 15 36  1  0
 18 37  1  0
 18 38  1  0
 20 39  1  0
 21 40  1  0
 22 41  1  0
 23 42  1  0
 24 43  1  0
 25 44  1  0
 26 45  1  0
 27 46  1  0
M  END
$$$$
[H]c1c([H])c(N([H])c2nc([H])c3c([H])c(-c4c([H])c([H])c(N5C([H])([H])C([H])([H])C([H])([H])C5([H])[H])c([H])c4[H])c([H])c([H])c3n2)c([H])c([H])c1C(=O)N([H])[H]
     RDKit          3D

 54 58  0  0  0  0  0  0  0  0999 V2000
  -10.8735   -0.8459    1.3328 N   0  0  0  0  0  0  0  0  0  0  0  0
   -9.6760   -0.5169    2.0050 C   0  0  0  0  0  0  0  0  0  0  0  0
   -9.6707   -0.4663    3.2538 O   0  0  0  0  0  0  0  0  0  0  0  0
   -8.4678   -0.2413    1.2540 C   0  0  0  0  0  0  0  0  0  0  0  0
   -8.5147   -0.3000   -0.1197 C   0  0  0  0  0  0  0  0  0  0  0  0
   -7.3810   -0.0421   -0.8264 C   0  0  0  0  0  0  0  0  0  0  0  0
   -6.1460    0.2861   -0.2169 C   0  0  0  0  0  0  0  0  0  0  0  0
   -5.0500    0.5612   -1.0545 N   0  0  0  0  0  0  0  0  0  0  0  0
   -3.7179    0.4243   -0.6879 C   0  0  0  0  0  0  0  0  0  0  0  0
   -3.2681    0.0039    0.4828 N   0  0  0  0  0  0  0  0  0  0  0  0
   -1.9635   -0.1063    0.7750 C   0  0  0  0  0  0  0  0  0  0  0  0
   -0.9904    0.2254   -0.1650 C   0  0  0  0  0  0  0  0  0  0  0  0
    0.3512    0.1224    0.1069 C   0  0  0  0  0  0  0  0  0  0  0  0
    1.3135    0.4589   -0.8463 C   0  0  0  0  0  0  0  0  0  0  0  0
    0.8558    0.8984   -2.0704 C   0  0  0  0  0  0  0  0  0  0  0  0
   -0.4931    0.9998   -2.3373 C   0  0  0  0  0  0  0  0  0  0  0  0
   -1.4521    0.6625   -1.3822 C   0  0  0  0  0  0  0  0  0  0  0  0
   -2.7542    0.7486   -1.6072 N   0  0  0  0  0  0  0  0  0  0  0  0
    2.7371    0.3504   -0.5600 C   0  0  0  0  0  0  0  0  0  0  0  0
    3.1633   -0.6257    0.2915 C   0  0  0  0  0  0  0  0  0  0  0  0
    4.5231   -0.7642    0.5944 C   0  0  0  0  0  0  0  0  0  0  0  0
    5.4791    0.0654    0.0555 C   0  0  0  0  0  0  0  0  0  0  0  0
    5.0326    1.0619   -0.8154 C   0  0  0  0  0  0  0  0  0  0  0  0
    3.6838    1.1847   -1.1040 C   0  0  0  0  0  0  0  0  0  0  0  0
    6.8739   -0.0591    0.3526 N   0  0  0  0  0  0  0  0  0  0  0  0
    7.4630   -1.0485    1.2202 C   0  0  0  0  0  0  0  0  0  0  0  0
    8.6838   -1.4892    0.4039 C   0  0  0  0  0  0  0  0  0  0  0  0
    9.0584   -0.2562   -0.3797 C   0  0  0  0  0  0  0  0  0  0  0  0
    7.9642    0.7556   -0.1330 C   0  0  0  0  0  0  0  0  0  0  0  0
   -6.1284    0.3379    1.1395 C   0  0  0  0  0  0  0  0  0  0  0  0
   -7.2949    0.0723    1.8721 C   0  0  0  0  0  0  0  0  0  0  0  0
  -11.1603   -0.2444    0.5297 H   0  0  0  0  0  0  0  0  0  0  0  0
  -11.4583   -1.6652    1.6261 H   0  0  0  0  0  0  0  0  0  0  0  0
   -9.4459   -0.5482   -0.5940 H   0  0  0  0  0  0  0  0  0  0  0  0
   -7.3814   -0.0788   -1.8919 H   0  0  0  0  0  0  0  0  0  0  0  0
   -5.2506    0.9074   -2.0655 H   0  0  0  0  0  0  0  0  0  0  0  0
   -1.5992   -0.4525    1.7389 H   0  0  0  0  0  0  0  0  0  0  0  0
    0.6867   -0.2196    1.0596 H   0  0  0  0  0  0  0  0  0  0  0  0
    1.5736    1.1725   -2.8452 H   0  0  0  0  0  0  0  0  0  0  0  0
   -0.8910    1.3412   -3.2875 H   0  0  0  0  0  0  0  0  0  0  0  0
    2.4806   -1.3357    0.7717 H   0  0  0  0  0  0  0  0  0  0  0  0
    4.8385   -1.5557    1.2816 H   0  0  0  0  0  0  0  0  0  0  0  0
    5.7394    1.7347   -1.2616 H   0  0  0  0  0  0  0  0  0  0  0  0
    3.3226    1.9573   -1.7811 H   0  0  0  0  0  0  0  0  0  0  0  0
    7.8337   -0.5752    2.1515 H   0  0  0  0  0  0  0  0  0  0  0  0
    6.8146   -1.9163    1.4338 H   0  0  0  0  0  0  0  0  0  0  0  0
    8.3518   -2.3139   -0.2692 H   0  0  0  0  0  0  0  0  0  0  0  0
    9.4666   -1.7954    1.1138 H   0  0  0  0  0  0  0  0  0  0  0  0
    9.0635   -0.4671   -1.4864 H   0  0  0  0  0  0  0  0  0  0  0  0
   10.0631    0.1231   -0.1111 H   0  0  0  0  0  0  0  0  0  0  0  0
    8.3424    1.4391    0.6621 H   0  0  0  0  0  0  0  0  0  0  0  0
    7.7131    1.3061   -1.0547 H   0  0  0  0  0  0  0  0  0  0  0  0
   -5.2321    0.5992    1.6666 H   0  0  0  0  0  0  0  0  0  0  0  0
   -7.2120    0.1294    2.9396 H   0  0  0  0  0  0  0  0  0  0  0  0
  1  2  1  0
  2  3  2  0
  2  4  1  0
  4  5  2  0
  5  6  1  0
  6  7  2  0
  7  8  1  0
  8  9  1  0
  9 10  2  0
 10 11  1  0
 11 12  2  0
 12 13  1  0
 13 14  2  0
 14 15  1  0
 15 16  2  0
 16 17  1  0
 17 18  2  0
 14 19  1  0
 19 20  2  0
 20 21  1  0
 21 22  2  0
 22 23  1  0
 23 24  2  0
 22 25  1  0
 25 26  1  0
 26 27  1  0
 27 28  1  0
 28 29  1  0
  7 30  1  0
 30 31  2  0
 31  4  1  0
 18  9  1  0
 24 19  1  0
 29 25  1  0
 17 12  1  0
  1 32  1  0
  1 33  1  0
  5 34  1  0
  6 35  1  0
  8 36  1  0
 11 37  1  0
 13 38  1  0
 15 39  1  0
 16 40  1  0
 20 41  1  0
 21 42  1  0
 23 43  1  0
 24 44  1  0
 26 45  1  0
 26 46  1  0
 27 47  1  0
 27 48  1  0
 28 49  1  0
 28 50  1  0
 29 51  1  0
 29 52  1  0
 30 53  1  0
 31 54  1  0
M  END
$$$$
[H]N=C(N([H])[H])N([H])C([H])([H])C([H])([H])C([H])([H])[C@]1([H])C(=O)[C@]2(C(=O)N1[H])c1c([H])c([H])c([H])c([H])c1C([H])([H])C(=O)O[C@]([H])(C([H])([H])c1c([H])c([H])c(O[H])c([H])c1[H])[C@@]2([H])C([H])([H])OP(=O)(O[H])O[H]
     RDKit          3D

 71 74  0  0  0  0  0  0  0  0999 V2000
    5.8432    3.9656   -0.4496 N   0  0  0  0  0  0  0  0  0  0  0  0
    6.0718    2.6209   -0.8566 C   0  0  0  0  0  0  0  0  0  0  0  0
    6.5679    2.4201   -2.0225 N   0  0  0  0  0  0  0  0  0  0  0  0
    5.7631    1.5489   -0.0018 N   0  0  0  0  0  0  0  0  0  0  0  0
    4.3962    1.0098    0.0421 C   0  0  0  0  0  0  0  0  0  0  0  0
    4.1605    0.3560   -1.2631 C   0  0  0  0  0  0  0  0  0  0  0  0
    2.8704   -0.2716   -1.5559 C   0  0  0  0  0  0  0  0  0  0  0  0
    2.3900   -1.4263   -0.7472 C   0  0  1  0  0  0  0  0  0  0  0  0
    2.2278   -1.1228    0.6162 N   0  0  0  0  0  0  0  0  0  0  0  0
    0.8960   -0.5691    0.8233 C   0  0  0  0  0  0  0  0  0  0  0  0
    0.8022    0.4204    1.5553 O   0  0  0  0  0  0  0  0  0  0  0  0
    0.0429   -1.4614    0.0185 C   0  0  2  0  0  0  0  0  0  0  0  0
   -1.3343   -0.9867   -0.3561 C   0  0  2  0  0  0  0  0  0  0  0  0
   -1.6181   -1.1238   -1.8306 C   0  0  0  0  0  0  0  0  0  0  0  0
   -2.9080   -0.7302   -2.1695 O   0  0  0  0  0  0  0  0  0  0  0  0
   -3.2461   -0.8675   -3.7908 P   0  0  0  0  0  0  0  0  0  0  0  0
   -1.8185   -1.2005   -4.6710 O   0  0  0  0  0  0  0  0  0  0  0  0
   -4.3521   -2.0582   -4.1752 O   0  0  0  0  0  0  0  0  0  0  0  0
   -3.7643    0.4869   -4.2721 O   0  0  0  0  0  0  0  0  0  0  0  0
   -1.7922    0.2563    0.3049 C   0  0  1  0  0  0  0  0  0  0  0  0
   -2.9105    1.0285   -0.4028 C   0  0  0  0  0  0  0  0  0  0  0  0
   -3.1599    2.2296    0.4930 C   0  0  0  0  0  0  0  0  0  0  0  0
   -2.4655    3.4088    0.3323 C   0  0  0  0  0  0  0  0  0  0  0  0
   -2.6857    4.5107    1.1344 C   0  0  0  0  0  0  0  0  0  0  0  0
   -3.6308    4.4655    2.1474 C   0  0  0  0  0  0  0  0  0  0  0  0
   -3.8671    5.5710    2.9687 O   0  0  0  0  0  0  0  0  0  0  0  0
   -4.3315    3.2943    2.3193 C   0  0  0  0  0  0  0  0  0  0  0  0
   -4.0972    2.1949    1.5028 C   0  0  0  0  0  0  0  0  0  0  0  0
   -2.2828    0.0624    1.6153 O   0  0  0  0  0  0  0  0  0  0  0  0
   -2.4039   -0.9211    2.5481 C   0  0  0  0  0  0  0  0  0  0  0  0
   -3.5570   -1.0623    3.0138 O   0  0  0  0  0  0  0  0  0  0  0  0
   -1.4394   -1.8653    3.1294 C   0  0  0  0  0  0  0  0  0  0  0  0
   -0.7196   -2.7266    2.1683 C   0  0  0  0  0  0  0  0  0  0  0  0
   -0.7005   -3.9630    2.7837 C   0  0  0  0  0  0  0  0  0  0  0  0
   -0.1014   -5.0461    2.1979 C   0  0  0  0  0  0  0  0  0  0  0  0
    0.5059   -4.9468    0.9729 C   0  0  0  0  0  0  0  0  0  0  0  0
    0.4899   -3.6915    0.3413 C   0  0  0  0  0  0  0  0  0  0  0  0
   -0.1085   -2.6431    0.9430 C   0  0  0  0  0  0  0  0  0  0  0  0
    0.9270   -1.7180   -1.1223 C   0  0  0  0  0  0  0  0  0  0  0  0
    0.8021   -2.0957   -2.2738 O   0  0  0  0  0  0  0  0  0  0  0  0
    6.5503    4.4244    0.1844 H   0  0  0  0  0  0  0  0  0  0  0  0
    5.0273    4.5360   -0.7302 H   0  0  0  0  0  0  0  0  0  0  0  0
    6.8065    3.2036   -2.6743 H   0  0  0  0  0  0  0  0  0  0  0  0
    6.4889    1.1347    0.5958 H   0  0  0  0  0  0  0  0  0  0  0  0
    3.7534    1.9210    0.1089 H   0  0  0  0  0  0  0  0  0  0  0  0
    4.3420    0.3787    0.9204 H   0  0  0  0  0  0  0  0  0  0  0  0
    4.3006    1.1762   -2.0466 H   0  0  0  0  0  0  0  0  0  0  0  0
    5.0417   -0.3243   -1.5144 H   0  0  0  0  0  0  0  0  0  0  0  0
    2.9516   -0.6831   -2.6243 H   0  0  0  0  0  0  0  0  0  0  0  0
    2.0466    0.4950   -1.6687 H   0  0  0  0  0  0  0  0  0  0  0  0
    2.9760   -2.3567   -0.9440 H   0  0  0  0  0  0  0  0  0  0  0  0
    2.9603   -1.2996    1.3613 H   0  0  0  0  0  0  0  0  0  0  0  0
   -2.0529   -1.7690    0.0556 H   0  0  0  0  0  0  0  0  0  0  0  0
   -0.9326   -0.5022   -2.4484 H   0  0  0  0  0  0  0  0  0  0  0  0
   -1.6035   -2.2058   -2.0755 H   0  0  0  0  0  0  0  0  0  0  0  0
   -1.7878   -2.1500   -4.9339 H   0  0  0  0  0  0  0  0  0  0  0  0
   -4.7385   -2.5298   -3.3982 H   0  0  0  0  0  0  0  0  0  0  0  0
   -0.9725    1.0245    0.2575 H   0  0  0  0  0  0  0  0  0  0  0  0
   -2.6111    1.4773   -1.3429 H   0  0  0  0  0  0  0  0  0  0  0  0
   -3.8394    0.4692   -0.3550 H   0  0  0  0  0  0  0  0  0  0  0  0
   -1.7236    3.4648   -0.4519 H   0  0  0  0  0  0  0  0  0  0  0  0
   -2.1434    5.4356    1.0106 H   0  0  0  0  0  0  0  0  0  0  0  0
   -4.5930    6.2228    2.6339 H   0  0  0  0  0  0  0  0  0  0  0  0
   -5.0705    3.2375    3.1005 H   0  0  0  0  0  0  0  0  0  0  0  0
   -4.6565    1.2876    1.6539 H   0  0  0  0  0  0  0  0  0  0  0  0
   -0.7087   -1.3149    3.8009 H   0  0  0  0  0  0  0  0  0  0  0  0
   -1.9809   -2.5265    3.8550 H   0  0  0  0  0  0  0  0  0  0  0  0
   -1.1649   -4.0837    3.7444 H   0  0  0  0  0  0  0  0  0  0  0  0
   -0.0828   -6.0327    2.6831 H   0  0  0  0  0  0  0  0  0  0  0  0
    0.9770   -5.7884    0.5076 H   0  0  0  0  0  0  0  0  0  0  0  0
    0.9783   -3.6752   -0.6004 H   0  0  0  0  0  0  0  0  0  0  0  0
  1  2  1  0
  2  3  2  3
  2  4  1  0
  4  5  1  0
  5  6  1  0
  6  7  1  0
  7  8  1  0
  8  9  1  0
  9 10  1  0
 10 11  2  0
 12 10  1  1
 12 13  1  0
 13 14  1  0
 14 15  1  0
 15 16  1  0
 16 17  1  0
 16 18  1  0
 16 19  2  0
 13 20  1  0
 20 21  1  0
 21 22  1  0
 22 23  2  0
 23 24  1  0
 24 25  2  0
 25 26  1  0
 25 27  1  0
 27 28  2  0
 20 29  1  0
 29 30  1  0
 30 31  2  0
 30 32  1  0
 32 33  1  0
 33 34  2  0
 34 35  1  0
 35 36  2  0
 36 37  1  0
 37 38  2  0
 12 39  1  0
 39 40  2  0
 39  8  1  0
 38 12  1  0
 28 22  1  0
 38 33  1  0
  1 41  1  0
  1 42  1  0
  3 43  1  0
  4 44  1  0
  5 45  1  0
  5 46  1  0
  6 47  1  0
  6 48  1  0
  7 49  1  0
  7 50  1  0
  8 51  1  1
  9 52  1  0
 13 53  1  1
 14 54  1  0
 14 55  1  0
 17 56  1  0
 18 57  1  0
 20 58  1  1
 21 59  1  0
 21 60  1  0
 23 61  1  0
 24 62  1  0
 26 63  1  0
 27 64  1  0
 28 65  1  0
 32 66  1  0
 32 67  1  0
 34 68  1  0
 35 69  1  0
 36 70  1  0
 37 71  1  0
M  END
$$$$
[H]c1c([H])c([H])c2c(nc([H])c(=O)n2C2([H])C([H])([H])C([H])([H])N([C@@]3([H])C([H])([H])N(S(=O)(=O)C([H])([H])[H])C([H])([H])C3([H])[H])C([H])([H])C2([H])[H])c1[H]
     RDKit          3D

 50 53  0  0  0  0  0  0  0  0999 V2000
    5.3033    1.5296    0.0106 C   0  0  0  0  0  0  0  0  0  0  0  0
    5.7722   -0.1337   -0.4505 S   0  0  0  0  0  0  0  0  0  0  0  0
    6.9973   -0.4990    0.3256 O   0  0  0  0  0  0  0  0  0  0  0  0
    6.1297   -0.1179   -1.9156 O   0  0  0  0  0  0  0  0  0  0  0  0
    4.5041   -1.2482   -0.1916 N   0  0  0  0  0  0  0  0  0  0  0  0
    4.1004   -1.3463    1.1792 C   0  0  0  0  0  0  0  0  0  0  0  0
    2.6277   -1.7398    1.1838 C   0  0  0  0  0  0  0  0  0  0  0  0
    2.1755   -1.4881   -0.2307 C   0  0  2  0  0  0  0  0  0  0  0  0
    3.3254   -0.8760   -0.9533 C   0  0  0  0  0  0  0  0  0  0  0  0
    0.9550   -0.8096   -0.3840 N   0  0  0  0  0  0  0  0  0  0  0  0
    0.8771    0.5083    0.1301 C   0  0  0  0  0  0  0  0  0  0  0  0
   -0.2869    1.2847   -0.5404 C   0  0  0  0  0  0  0  0  0  0  0  0
   -1.5405    0.5370   -0.1880 C   0  0  0  0  0  0  0  0  0  0  0  0
   -1.3548   -0.8308   -0.8615 C   0  0  0  0  0  0  0  0  0  0  0  0
   -0.2412   -1.5394   -0.1229 C   0  0  0  0  0  0  0  0  0  0  0  0
   -2.7677    1.0704   -0.6189 N   0  0  0  0  0  0  0  0  0  0  0  0
   -2.9466    2.0275   -1.5317 C   0  0  0  0  0  0  0  0  0  0  0  0
   -1.9480    2.5185   -2.0732 O   0  0  0  0  0  0  0  0  0  0  0  0
   -4.1720    2.5286   -1.9326 C   0  0  0  0  0  0  0  0  0  0  0  0
   -5.2677    2.0170   -1.3635 N   0  0  0  0  0  0  0  0  0  0  0  0
   -5.1522    1.0392   -0.4260 C   0  0  0  0  0  0  0  0  0  0  0  0
   -6.3323    0.5652    0.1158 C   0  0  0  0  0  0  0  0  0  0  0  0
   -6.2992   -0.4161    1.0657 C   0  0  0  0  0  0  0  0  0  0  0  0
   -5.0527   -0.8994    1.4482 C   0  0  0  0  0  0  0  0  0  0  0  0
   -3.8879   -0.4200    0.9023 C   0  0  0  0  0  0  0  0  0  0  0  0
   -3.9073    0.5619   -0.0494 C   0  0  0  0  0  0  0  0  0  0  0  0
    5.9352    2.2132   -0.6230 H   0  0  0  0  0  0  0  0  0  0  0  0
    5.5607    1.7373    1.0785 H   0  0  0  0  0  0  0  0  0  0  0  0
    4.2537    1.7362   -0.2152 H   0  0  0  0  0  0  0  0  0  0  0  0
    4.7338   -2.0832    1.7052 H   0  0  0  0  0  0  0  0  0  0  0  0
    4.2506   -0.3397    1.6399 H   0  0  0  0  0  0  0  0  0  0  0  0
    2.0859   -1.1728    1.9420 H   0  0  0  0  0  0  0  0  0  0  0  0
    2.6023   -2.8030    1.4831 H   0  0  0  0  0  0  0  0  0  0  0  0
    2.0349   -2.5224   -0.6749 H   0  0  0  0  0  0  0  0  0  0  0  0
    3.4645   -1.3543   -1.9662 H   0  0  0  0  0  0  0  0  0  0  0  0
    3.2633    0.2001   -1.1329 H   0  0  0  0  0  0  0  0  0  0  0  0
    0.6974    0.5962    1.2055 H   0  0  0  0  0  0  0  0  0  0  0  0
    1.7793    1.1058   -0.1019 H   0  0  0  0  0  0  0  0  0  0  0  0
   -0.2243    2.2806   -0.0760 H   0  0  0  0  0  0  0  0  0  0  0  0
   -0.0001    1.2367   -1.6095 H   0  0  0  0  0  0  0  0  0  0  0  0
   -1.4662    0.4335    0.9382 H   0  0  0  0  0  0  0  0  0  0  0  0
   -0.9619   -0.6055   -1.8871 H   0  0  0  0  0  0  0  0  0  0  0  0
   -2.2660   -1.3969   -0.9807 H   0  0  0  0  0  0  0  0  0  0  0  0
   -0.1892   -2.6043   -0.4037 H   0  0  0  0  0  0  0  0  0  0  0  0
   -0.4396   -1.4671    0.9808 H   0  0  0  0  0  0  0  0  0  0  0  0
   -4.2457    3.3204   -2.6930 H   0  0  0  0  0  0  0  0  0  0  0  0
   -7.2897    0.9650   -0.2054 H   0  0  0  0  0  0  0  0  0  0  0  0
   -7.2210   -0.7855    1.4882 H   0  0  0  0  0  0  0  0  0  0  0  0
   -5.0014   -1.6812    2.2036 H   0  0  0  0  0  0  0  0  0  0  0  0
   -2.9669   -0.8326    1.2410 H   0  0  0  0  0  0  0  0  0  0  0  0
  1  2  1  0
  2  3  2  0
  2  4  2  0
  2  5  1  0
  5  6  1  0
  6  7  1  0
  7  8  1  0
  8  9  1  0
  8 10  1  0
 10 11  1  0
 11 12  1  0
 12 13  1  0
 13 14  1  0
 14 15  1  0
 13 16  1  0
 16 17  1  0
 17 18  2  0
 17 19  1  0
 19 20  2  0
 20 21  1  0
 21 22  2  0
 22 23  1  0
 23 24  2  0
 24 25  1  0
 25 26  2  0
  9  5  1  0
 15 10  1  0
 26 16  1  0
 26 21  1  0
  1 27  1  0
  1 28  1  0
  1 29  1  0
  6 30  1  0
  6 31  1  0
  7 32  1  0
  7 33  1  0
  8 34  1  6
  9 35  1  0
  9 36  1  0
 11 37  1  0
 11 38  1  0
 12 39  1  0
 12 40  1  0
 13 41  1  0
 14 42  1  0
 14 43  1  0
 15 44  1  0
 15 45  1  0
 19 46  1  0
 22 47  1  0
 23 48  1  0
 24 49  1  0
 25 50  1  0
M  END
$$$$
[H]N=C(N([H])[H])C([H])([H])OC([H])([H])c1c([H])c([H])c(N2C([H])([H])C([H])([H])N(S(=O)(=O)c3sc([H])c(C([H])([H])[H])c3[H])C([H])([H])C2([H])[H])c([H])c1[H]
     RDKit          3D

 51 53  0  0  0  0  0  0  0  0999 V2000
    7.2114   -2.1122   -1.4709 C   0  0  0  0  0  0  0  0  0  0  0  0
    7.0190   -0.6609   -1.0755 C   0  0  0  0  0  0  0  0  0  0  0  0
    7.9777    0.2672   -1.3458 C   0  0  0  0  0  0  0  0  0  0  0  0
    7.3188    1.7076   -0.7225 S   0  0  0  0  0  0  0  0  0  0  0  0
    5.8375    1.0981   -0.1313 C   0  0  0  0  0  0  0  0  0  0  0  0
    5.9014   -0.2321   -0.4423 C   0  0  0  0  0  0  0  0  0  0  0  0
    4.5340    1.9657    0.6987 S   0  0  0  0  0  0  0  0  0  0  0  0
    4.0574    3.0342   -0.2471 O   0  0  0  0  0  0  0  0  0  0  0  0
    5.0723    2.6413    1.9015 O   0  0  0  0  0  0  0  0  0  0  0  0
    3.2830    0.8701    1.0178 N   0  0  0  0  0  0  0  0  0  0  0  0
    2.6638    0.2659   -0.1069 C   0  0  0  0  0  0  0  0  0  0  0  0
    1.2412    0.7283   -0.3327 C   0  0  0  0  0  0  0  0  0  0  0  0
    0.4790    0.5254    0.8633 N   0  0  0  0  0  0  0  0  0  0  0  0
    1.1931    0.3446    2.1039 C   0  0  0  0  0  0  0  0  0  0  0  0
    2.4068    1.2551    2.0738 C   0  0  0  0  0  0  0  0  0  0  0  0
   -0.9323    0.5198    0.7715 C   0  0  0  0  0  0  0  0  0  0  0  0
   -1.7367    0.2141    1.8457 C   0  0  0  0  0  0  0  0  0  0  0  0
   -3.1320    0.2229    1.7358 C   0  0  0  0  0  0  0  0  0  0  0  0
   -3.7477    0.5361    0.5551 C   0  0  0  0  0  0  0  0  0  0  0  0
   -5.2255    0.5585    0.4003 C   0  0  0  0  0  0  0  0  0  0  0  0
   -5.6858   -0.6601   -0.0719 O   0  0  0  0  0  0  0  0  0  0  0  0
   -7.0789   -0.6063   -0.2029 C   0  0  0  0  0  0  0  0  0  0  0  0
   -7.5940   -1.8958   -0.7111 C   0  0  0  0  0  0  0  0  0  0  0  0
   -8.9841   -2.0996   -0.9188 N   0  0  0  0  0  0  0  0  0  0  0  0
   -6.7974   -2.8666   -0.9799 N   0  0  0  0  0  0  0  0  0  0  0  0
   -2.9500    0.8435   -0.5264 C   0  0  0  0  0  0  0  0  0  0  0  0
   -1.5834    0.8314   -0.4062 C   0  0  0  0  0  0  0  0  0  0  0  0
    6.2526   -2.6580   -1.4339 H   0  0  0  0  0  0  0  0  0  0  0  0
    7.5012   -2.0835   -2.5416 H   0  0  0  0  0  0  0  0  0  0  0  0
    8.0038   -2.5878   -0.8564 H   0  0  0  0  0  0  0  0  0  0  0  0
    8.9469    0.0826   -1.8550 H   0  0  0  0  0  0  0  0  0  0  0  0
    5.0430   -0.8951   -0.1596 H   0  0  0  0  0  0  0  0  0  0  0  0
    2.6510   -0.8343    0.0314 H   0  0  0  0  0  0  0  0  0  0  0  0
    3.2763    0.4420   -1.0400 H   0  0  0  0  0  0  0  0  0  0  0  0
    0.8523    0.1317   -1.1848 H   0  0  0  0  0  0  0  0  0  0  0  0
    1.2585    1.7902   -0.6030 H   0  0  0  0  0  0  0  0  0  0  0  0
    0.5847    0.6996    2.9609 H   0  0  0  0  0  0  0  0  0  0  0  0
    1.5203   -0.7048    2.2379 H   0  0  0  0  0  0  0  0  0  0  0  0
    2.0632    2.3034    2.0171 H   0  0  0  0  0  0  0  0  0  0  0  0
    2.9295    1.1310    3.0389 H   0  0  0  0  0  0  0  0  0  0  0  0
   -1.2772   -0.0420    2.8008 H   0  0  0  0  0  0  0  0  0  0  0  0
   -3.7339   -0.0224    2.6000 H   0  0  0  0  0  0  0  0  0  0  0  0
   -5.6931    0.7655    1.3843 H   0  0  0  0  0  0  0  0  0  0  0  0
   -5.5695    1.3451   -0.2839 H   0  0  0  0  0  0  0  0  0  0  0  0
   -7.3374    0.2472   -0.8505 H   0  0  0  0  0  0  0  0  0  0  0  0
   -7.4799   -0.4285    0.8343 H   0  0  0  0  0  0  0  0  0  0  0  0
   -9.4253   -2.1907   -1.8613 H   0  0  0  0  0  0  0  0  0  0  0  0
   -9.6246   -2.1655   -0.0952 H   0  0  0  0  0  0  0  0  0  0  0  0
   -7.1110   -3.7875   -1.3375 H   0  0  0  0  0  0  0  0  0  0  0  0
   -3.4377    1.0899   -1.4583 H   0  0  0  0  0  0  0  0  0  0  0  0
   -0.9424    1.0757   -1.2596 H   0  0  0  0  0  0  0  0  0  0  0  0
  1  2  1  0
  2  3  2  0
  3  4  1  0
  4  5  1  0
  5  6  2  0
  5  7  1  0
  7  8  2  0
  7  9  2  0
  7 10  1  0
 10 11  1  0
 11 12  1  0
 12 13  1  0
 13 14  1  0
 14 15  1  0
 13 16  1  0
 16 17  2  0
 17 18  1  0
 18 19  2  0
 19 20  1  0
 20 21  1  0
 21 22  1  0
 22 23  1  0
 23 24  1  0
 23 25  2  3
 19 26  1  0
 26 27  2  0
  6  2  1  0
 15 10  1  0
 27 16  1  0
  1 28  1  0
  1 29  1  0
  1 30  1  0
  3 31  1  0
  6 32  1  0
 11 33  1  0
 11 34  1  0
 12 35  1  0
 12 36  1  0
 14 37  1  0
 14 38  1  0
 15 39  1  0
 15 40  1  0
 17 41  1  0
 18 42  1  0
 20 43  1  0
 20 44  1  0
 22 45  1  0
 22 46  1  0
 24 47  1  0
 24 48  1  0
 25 49  1  0
 26 50  1  0
 27 51  1  0
M  END
$$$$
[H]c1c([H])c([H])c(-c2c([H])c3c(c(N([H])C(=O)N4C([H])([H])C(=O)N([H])C([H])([H])C4([H])[H])nn3C([H])([H])c3c([H])c([H])c(F)c([H])c3[H])n2[H])c([H])c1[H]
     RDKit          3D

 53 57  0  0  0  0  0  0  0  0999 V2000
    3.0523    1.6604   -0.4620 O   0  0  0  0  0  0  0  0  0  0  0  0
    3.1978    0.4263   -0.3627 C   0  0  0  0  0  0  0  0  0  0  0  0
    2.0652   -0.4086   -0.4231 N   0  0  0  0  0  0  0  0  0  0  0  0
    0.7503    0.1653   -0.5996 C   0  0  0  0  0  0  0  0  0  0  0  0
    0.4539    1.4690   -0.7212 N   0  0  0  0  0  0  0  0  0  0  0  0
   -0.8388    1.6637   -0.8697 N   0  0  0  0  0  0  0  0  0  0  0  0
   -1.5435    2.9409   -1.0319 C   0  0  0  0  0  0  0  0  0  0  0  0
   -1.9452    3.5054    0.2829 C   0  0  0  0  0  0  0  0  0  0  0  0
   -3.1713    3.1797    0.8264 C   0  0  0  0  0  0  0  0  0  0  0  0
   -3.5119    3.7220    2.0479 C   0  0  0  0  0  0  0  0  0  0  0  0
   -2.6703    4.5722    2.7347 C   0  0  0  0  0  0  0  0  0  0  0  0
   -3.0842    5.0701    3.9462 F   0  0  0  0  0  0  0  0  0  0  0  0
   -1.4484    4.9012    2.2001 C   0  0  0  0  0  0  0  0  0  0  0  0
   -1.1131    4.3603    0.9860 C   0  0  0  0  0  0  0  0  0  0  0  0
   -1.4254    0.4549   -0.8470 C   0  0  0  0  0  0  0  0  0  0  0  0
   -2.6513   -0.2114   -0.9289 C   0  0  0  0  0  0  0  0  0  0  0  0
   -2.3829   -1.5566   -0.8073 C   0  0  0  0  0  0  0  0  0  0  0  0
   -1.0550   -1.7064   -0.6582 N   0  0  0  0  0  0  0  0  0  0  0  0
   -0.4474   -0.5093   -0.6778 C   0  0  0  0  0  0  0  0  0  0  0  0
   -3.3629   -2.6427   -0.8338 C   0  0  0  0  0  0  0  0  0  0  0  0
   -4.7057   -2.3648   -0.9973 C   0  0  0  0  0  0  0  0  0  0  0  0
   -5.6159   -3.3999   -1.0192 C   0  0  0  0  0  0  0  0  0  0  0  0
   -5.2318   -4.7213   -0.8822 C   0  0  0  0  0  0  0  0  0  0  0  0
   -3.8883   -4.9842   -0.7197 C   0  0  0  0  0  0  0  0  0  0  0  0
   -2.9574   -3.9515   -0.6954 C   0  0  0  0  0  0  0  0  0  0  0  0
    4.4751   -0.1218   -0.1930 N   0  0  0  0  0  0  0  0  0  0  0  0
    4.6839   -1.5390   -0.0736 C   0  0  0  0  0  0  0  0  0  0  0  0
    6.1103   -1.9035    0.1502 C   0  0  0  0  0  0  0  0  0  0  0  0
    6.7465   -1.0372    1.1553 N   0  0  0  0  0  0  0  0  0  0  0  0
    6.4312    0.3411    1.0385 C   0  0  0  0  0  0  0  0  0  0  0  0
    6.7952    1.1901    1.8682 O   0  0  0  0  0  0  0  0  0  0  0  0
    5.6325    0.7509   -0.1350 C   0  0  0  0  0  0  0  0  0  0  0  0
    2.1893   -1.4326   -0.3402 H   0  0  0  0  0  0  0  0  0  0  0  0
   -0.8197    3.6635   -1.4891 H   0  0  0  0  0  0  0  0  0  0  0  0
   -2.3753    2.8326   -1.7366 H   0  0  0  0  0  0  0  0  0  0  0  0
   -3.8297    2.5116    0.2841 H   0  0  0  0  0  0  0  0  0  0  0  0
   -4.4760    3.4610    2.4674 H   0  0  0  0  0  0  0  0  0  0  0  0
   -0.7804    5.5680    2.7315 H   0  0  0  0  0  0  0  0  0  0  0  0
   -0.1379    4.6214    0.5569 H   0  0  0  0  0  0  0  0  0  0  0  0
   -3.6240    0.2106   -1.0599 H   0  0  0  0  0  0  0  0  0  0  0  0
   -0.5743   -2.6322   -0.5438 H   0  0  0  0  0  0  0  0  0  0  0  0
   -5.0154   -1.3272   -1.1054 H   0  0  0  0  0  0  0  0  0  0  0  0
   -6.6710   -3.1919   -1.1466 H   0  0  0  0  0  0  0  0  0  0  0  0
   -5.9625   -5.5432   -0.9005 H   0  0  0  0  0  0  0  0  0  0  0  0
   -3.6020   -6.0209   -0.6136 H   0  0  0  0  0  0  0  0  0  0  0  0
   -1.9240   -4.1992   -0.5673 H   0  0  0  0  0  0  0  0  0  0  0  0
    4.3894   -1.9806   -1.0711 H   0  0  0  0  0  0  0  0  0  0  0  0
    4.0221   -1.9935    0.7004 H   0  0  0  0  0  0  0  0  0  0  0  0
    6.7350   -1.8573   -0.7515 H   0  0  0  0  0  0  0  0  0  0  0  0
    6.1540   -2.9447    0.5782 H   0  0  0  0  0  0  0  0  0  0  0  0
    7.3787   -1.3948    1.8967 H   0  0  0  0  0  0  0  0  0  0  0  0
    6.2249    0.5096   -1.0669 H   0  0  0  0  0  0  0  0  0  0  0  0
    5.3552    1.8248   -0.1204 H   0  0  0  0  0  0  0  0  0  0  0  0
  1  2  2  0
  2  3  1  0
  3  4  1  0
  4  5  2  0
  5  6  1  0
  6  7  1  0
  7  8  1  0
  8  9  2  0
  9 10  1  0
 10 11  2  0
 11 12  1  0
 11 13  1  0
 13 14  2  0
  6 15  1  0
 15 16  1  0
 16 17  2  0
 17 18  1  0
 18 19  1  0
 17 20  1  0
 20 21  2  0
 21 22  1  0
 22 23  2  0
 23 24  1  0
 24 25  2  0
  2 26  1  0
 26 27  1  0
 27 28  1  0
 28 29  1  0
 29 30  1  0
 30 31  2  0
 30 32  1  0
 19  4  1  0
 25 20  1  0
 32 26  1  0
 14  8  1  0
 19 15  2  0
  3 33  1  0
  7 34  1  0
  7 35  1  0
  9 36  1  0
 10 37  1  0
 13 38  1  0
 14 39  1  0
 16 40  1  0
 18 41  1  0
 21 42  1  0
 22 43  1  0
 23 44  1  0
 24 45  1  0
 25 46  1  0
 27 47  1  0
 27 48  1  0
 28 49  1  0
 28 50  1  0
 29 51  1  0
 32 52  1  0
 32 53  1  0
M  END
$$$$
[H]c1c([H])c([H])c(N([H])C(=O)C([H])([H])C([H])([H])[H])c(C(=O)N([H])c2noc3c([H])c(C([H])([H])[H])nc(Br)c23)c1[H]
     RDKit          3D

 40 42  0  0  0  0  0  0  0  0999 V2000
   -6.2024    2.0844    0.6323 C   0  0  0  0  0  0  0  0  0  0  0  0
   -4.7670    1.6966    0.8488 C   0  0  0  0  0  0  0  0  0  0  0  0
   -4.4438    0.4269    0.0842 C   0  0  0  0  0  0  0  0  0  0  0  0
   -5.3611   -0.1033   -0.5895 O   0  0  0  0  0  0  0  0  0  0  0  0
   -3.1358   -0.0732    0.1806 N   0  0  0  0  0  0  0  0  0  0  0  0
   -2.6057   -1.2362   -0.4276 C   0  0  0  0  0  0  0  0  0  0  0  0
   -3.4955   -2.2635   -0.7881 C   0  0  0  0  0  0  0  0  0  0  0  0
   -3.0586   -3.4672   -1.2801 C   0  0  0  0  0  0  0  0  0  0  0  0
   -1.7144   -3.6744   -1.4238 C   0  0  0  0  0  0  0  0  0  0  0  0
   -0.8390   -2.6838   -1.0780 C   0  0  0  0  0  0  0  0  0  0  0  0
   -1.2673   -1.4792   -0.5880 C   0  0  0  0  0  0  0  0  0  0  0  0
   -0.2938   -0.4355   -0.3313 C   0  0  0  0  0  0  0  0  0  0  0  0
   -0.6318    0.7254   -0.0222 O   0  0  0  0  0  0  0  0  0  0  0  0
    1.1315   -0.6463   -0.4085 N   0  0  0  0  0  0  0  0  0  0  0  0
    1.9958    0.4448   -0.1375 C   0  0  0  0  0  0  0  0  0  0  0  0
    1.6343    1.7118    0.1967 N   0  0  0  0  0  0  0  0  0  0  0  0
    2.7051    2.4245    0.3659 O   0  0  0  0  0  0  0  0  0  0  0  0
    3.7895    1.7331    0.1704 C   0  0  0  0  0  0  0  0  0  0  0  0
    5.1519    2.0027    0.2203 C   0  0  0  0  0  0  0  0  0  0  0  0
    6.1147    1.0520   -0.0406 C   0  0  0  0  0  0  0  0  0  0  0  0
    7.5633    1.3789    0.0230 C   0  0  0  0  0  0  0  0  0  0  0  0
    5.6599   -0.1743   -0.3521 N   0  0  0  0  0  0  0  0  0  0  0  0
    4.3496   -0.4723   -0.4102 C   0  0  0  0  0  0  0  0  0  0  0  0
    3.9105   -2.2630   -0.8683 Br  0  0  0  0  0  0  0  0  0  0  0  0
    3.3641    0.4484   -0.1568 C   0  0  0  0  0  0  0  0  0  0  0  0
   -6.2579    3.1885    0.4209 H   0  0  0  0  0  0  0  0  0  0  0  0
   -6.6176    1.5984   -0.2891 H   0  0  0  0  0  0  0  0  0  0  0  0
   -6.8169    1.8434    1.5336 H   0  0  0  0  0  0  0  0  0  0  0  0
   -4.5456    1.4678    1.9079 H   0  0  0  0  0  0  0  0  0  0  0  0
   -4.1024    2.4889    0.4460 H   0  0  0  0  0  0  0  0  0  0  0  0
   -2.5084    0.4895    0.8375 H   0  0  0  0  0  0  0  0  0  0  0  0
   -4.5418   -2.1523   -0.6780 H   0  0  0  0  0  0  0  0  0  0  0  0
   -3.7563   -4.2550   -1.5565 H   0  0  0  0  0  0  0  0  0  0  0  0
   -1.3435   -4.6416   -1.8186 H   0  0  0  0  0  0  0  0  0  0  0  0
    0.2091   -2.8949   -1.2111 H   0  0  0  0  0  0  0  0  0  0  0  0
    1.4173   -1.5930   -0.6597 H   0  0  0  0  0  0  0  0  0  0  0  0
    5.4615    2.9969    0.4738 H   0  0  0  0  0  0  0  0  0  0  0  0
    8.1561    0.4678    0.2692 H   0  0  0  0  0  0  0  0  0  0  0  0
    7.7901    2.1294    0.7990 H   0  0  0  0  0  0  0  0  0  0  0  0
    7.9024    1.7090   -0.9722 H   0  0  0  0  0  0  0  0  0  0  0  0
  1  2  1  0
  2  3  1  0
  3  4  2  0
  3  5  1  0
  5  6  1  0
  6  7  2  0
  7  8  1  0
  8  9  2  0
  9 10  1  0
 10 11  2  0
 11 12  1  0
 12 13  2  0
 12 14  1  0
 14 15  1  0
 15 16  2  0
 16 17  1  0
 17 18  1  0
 18 19  2  0
 19 20  1  0
 20 21  1  0
 20 22  2  0
 22 23  1  0
 23 24  1  0
 23 25  2  0
 11  6  1  0
 25 15  1  0
 25 18  1  0
  1 26  1  0
  1 27  1  0
  1 28  1  0
  2 29  1  0
  2 30  1  0
  5 31  1  0
  7 32  1  0
  8 33  1  0
  9 34  1  0
 10 35  1  0
 14 36  1  0
 19 37  1  0
 21 38  1  0
 21 39  1  0
 21 40  1  0
M  END
$$$$
[H]c1c(C([H])([H])c2c([H])c([H])c(N([H])S(=O)(=O)c3c([H])c([H])c(F)c(F)c3[H])c([H])c2[H])nc(-c2c([H])c([H])c([H])c(OC([H])([H])C([H])([H])N(C([H])([H])C([H])([H])[H])C([H])([H])C([H])([H])[H])c2[H])c(Cl)c1[H]
     RDKit          3D

 70 73  0  0  0  0  0  0  0  0999 V2000
  -10.3178    0.5106    0.2425 C   0  0  0  0  0  0  0  0  0  0  0  0
   -8.9387    0.5326   -0.3116 C   0  0  0  0  0  0  0  0  0  0  0  0
   -8.0665   -0.4814    0.3903 N   0  0  0  0  0  0  0  0  0  0  0  0
   -8.5610   -1.7517    0.0096 C   0  0  0  0  0  0  0  0  0  0  0  0
   -8.0232   -2.9676    0.6380 C   0  0  0  0  0  0  0  0  0  0  0  0
   -6.7349   -0.1140   -0.0081 C   0  0  0  0  0  0  0  0  0  0  0  0
   -5.6111   -0.9063    0.5841 C   0  0  0  0  0  0  0  0  0  0  0  0
   -4.3815   -0.4831    0.1645 O   0  0  0  0  0  0  0  0  0  0  0  0
   -3.6298    0.6214    0.2735 C   0  0  0  0  0  0  0  0  0  0  0  0
   -4.0088    1.7300    0.9758 C   0  0  0  0  0  0  0  0  0  0  0  0
   -3.1580    2.8466    1.0338 C   0  0  0  0  0  0  0  0  0  0  0  0
   -1.9684    2.7957    0.3847 C   0  0  0  0  0  0  0  0  0  0  0  0
   -1.5357    1.6992   -0.3396 C   0  0  0  0  0  0  0  0  0  0  0  0
   -2.3801    0.6247   -0.3819 C   0  0  0  0  0  0  0  0  0  0  0  0
   -0.2372    1.7811   -0.9639 C   0  0  0  0  0  0  0  0  0  0  0  0
    0.8403    2.1907   -0.2801 N   0  0  0  0  0  0  0  0  0  0  0  0
    2.0654    2.2873   -0.8495 C   0  0  0  0  0  0  0  0  0  0  0  0
    3.2443    2.7397   -0.0496 C   0  0  0  0  0  0  0  0  0  0  0  0
    3.9323    1.5353    0.5183 C   0  0  0  0  0  0  0  0  0  0  0  0
    3.5803    0.9717    1.7236 C   0  0  0  0  0  0  0  0  0  0  0  0
    4.2293   -0.1346    2.2187 C   0  0  0  0  0  0  0  0  0  0  0  0
    5.2825   -0.7409    1.5169 C   0  0  0  0  0  0  0  0  0  0  0  0
    5.9540   -1.8563    2.0389 N   0  0  0  0  0  0  0  0  0  0  0  0
    7.6181   -2.0327    2.2824 S   0  0  0  0  0  0  0  0  0  0  0  0
    7.9272   -3.3348    2.9799 O   0  0  0  0  0  0  0  0  0  0  0  0
    8.0516   -0.9504    3.2451 O   0  0  0  0  0  0  0  0  0  0  0  0
    8.6098   -1.9326    0.8611 C   0  0  0  0  0  0  0  0  0  0  0  0
    9.3280   -0.7578    0.5949 C   0  0  0  0  0  0  0  0  0  0  0  0
   10.1280   -0.6172   -0.5145 C   0  0  0  0  0  0  0  0  0  0  0  0
   10.2349   -1.6518   -1.3958 C   0  0  0  0  0  0  0  0  0  0  0  0
   11.0211   -1.5126   -2.4849 F   0  0  0  0  0  0  0  0  0  0  0  0
    9.5227   -2.8327   -1.1427 C   0  0  0  0  0  0  0  0  0  0  0  0
    9.6843   -3.8162   -2.0718 F   0  0  0  0  0  0  0  0  0  0  0  0
    8.7297   -2.9621   -0.0361 C   0  0  0  0  0  0  0  0  0  0  0  0
    5.6202   -0.1664    0.3169 C   0  0  0  0  0  0  0  0  0  0  0  0
    4.9599    0.9619   -0.1899 C   0  0  0  0  0  0  0  0  0  0  0  0
    2.2309    1.9596   -2.1706 C   0  0  0  0  0  0  0  0  0  0  0  0
    1.1526    1.5308   -2.9241 C   0  0  0  0  0  0  0  0  0  0  0  0
   -0.0718    1.4545   -2.2815 C   0  0  0  0  0  0  0  0  0  0  0  0
   -1.4543    0.9338   -3.2094 Cl  0  0  0  0  0  0  0  0  0  0  0  0
  -10.7928    1.5062    0.0143 H   0  0  0  0  0  0  0  0  0  0  0  0
  -10.9548   -0.2255   -0.2990 H   0  0  0  0  0  0  0  0  0  0  0  0
  -10.3683    0.4131    1.3378 H   0  0  0  0  0  0  0  0  0  0  0  0
   -8.9253    0.2267   -1.3770 H   0  0  0  0  0  0  0  0  0  0  0  0
   -8.4526    1.5201   -0.1982 H   0  0  0  0  0  0  0  0  0  0  0  0
   -8.5295   -1.8044   -1.1127 H   0  0  0  0  0  0  0  0  0  0  0  0
   -9.6780   -1.7202    0.2153 H   0  0  0  0  0  0  0  0  0  0  0  0
   -8.8873   -3.6497    0.9059 H   0  0  0  0  0  0  0  0  0  0  0  0
   -7.5498   -2.7829    1.6432 H   0  0  0  0  0  0  0  0  0  0  0  0
   -7.3898   -3.6078   -0.0100 H   0  0  0  0  0  0  0  0  0  0  0  0
   -6.6494   -0.0678   -1.1354 H   0  0  0  0  0  0  0  0  0  0  0  0
   -6.6069    0.9428    0.2900 H   0  0  0  0  0  0  0  0  0  0  0  0
   -5.7372   -0.8057    1.7104 H   0  0  0  0  0  0  0  0  0  0  0  0
   -5.6841   -2.0043    0.3801 H   0  0  0  0  0  0  0  0  0  0  0  0
   -4.9384    1.8005    1.5219 H   0  0  0  0  0  0  0  0  0  0  0  0
   -3.4905    3.7099    1.5993 H   0  0  0  0  0  0  0  0  0  0  0  0
   -1.3226    3.6676    0.4397 H   0  0  0  0  0  0  0  0  0  0  0  0
   -2.0685   -0.2526   -0.9322 H   0  0  0  0  0  0  0  0  0  0  0  0
    3.9140    3.2771   -0.7527 H   0  0  0  0  0  0  0  0  0  0  0  0
    2.9487    3.3935    0.7712 H   0  0  0  0  0  0  0  0  0  0  0  0
    2.7689    1.4382    2.2654 H   0  0  0  0  0  0  0  0  0  0  0  0
    3.9605   -0.5842    3.1638 H   0  0  0  0  0  0  0  0  0  0  0  0
    5.3148   -2.6803    2.3062 H   0  0  0  0  0  0  0  0  0  0  0  0
    9.2185    0.0415    1.3168 H   0  0  0  0  0  0  0  0  0  0  0  0
   10.6586    0.3363   -0.6521 H   0  0  0  0  0  0  0  0  0  0  0  0
    8.1971   -3.8727    0.1340 H   0  0  0  0  0  0  0  0  0  0  0  0
    6.4150   -0.6140   -0.2631 H   0  0  0  0  0  0  0  0  0  0  0  0
    5.2551    1.3925   -1.1477 H   0  0  0  0  0  0  0  0  0  0  0  0
    3.2063    2.0233   -2.6719 H   0  0  0  0  0  0  0  0  0  0  0  0
    1.3001    1.2792   -3.9517 H   0  0  0  0  0  0  0  0  0  0  0  0
  1  2  1  0
  2  3  1  0
  3  4  1  0
  4  5  1  0
  3  6  1  0
  6  7  1  0
  7  8  1  0
  8  9  1  0
  9 10  2  0
 10 11  1  0
 11 12  2  0
 12 13  1  0
 13 14  2  0
 13 15  1  0
 15 16  2  0
 16 17  1  0
 17 18  1  0
 18 19  1  0
 19 20  2  0
 20 21  1  0
 21 22  2  0
 22 23  1  0
 23 24  1  0
 24 25  2  0
 24 26  2  0
 24 27  1  0
 27 28  2  0
 28 29  1  0
 29 30  2  0
 30 31  1  0
 30 32  1  0
 32 33  1  0
 32 34  2  0
 22 35  1  0
 35 36  2  0
 17 37  2  0
 37 38  1  0
 38 39  2  0
 39 40  1  0
 14  9  1  0
 39 15  1  0
 36 19  1  0
 34 27  1  0
  1 41  1  0
  1 42  1  0
  1 43  1  0
  2 44  1  0
  2 45  1  0
  4 46  1  0
  4 47  1  0
  5 48  1  0
  5 49  1  0
  5 50  1  0
  6 51  1  0
  6 52  1  0
  7 53  1  0
  7 54  1  0
 10 55  1  0
 11 56  1  0
 12 57  1  0
 14 58  1  0
 18 59  1  0
 18 60  1  0
 20 61  1  0
 21 62  1  0
 23 63  1  0
 28 64  1  0
 29 65  1  0
 34 66  1  0
 35 67  1  0
 36 68  1  0
 37 69  1  0
 38 70  1  0
M  END
$$$$
[H]OC(=O)N(C(=O)[C@]([H])(C([H])([H])c1c([H])c([H])c([H])c([H])c1[H])[C@@]([H])(N([H])C(=O)[C@@]([H])(N([H])C(=O)[C@]([H])(N([H])C(=O)C([H])([H])OC(=O)C([H])([H])[H])C([H])([H])c1c([H])c([H])c([H])c([H])c1[H])C([H])([H])c1c([H])c([H])c([H])c([H])c1[H])C([H])([H])c1nc([H])sc1[H])C([H])([H])C([H])(C([H])([H])[H])C([H])([H])[H]
     RDKit          3D

102105  0  0  0  0  0  0  0  0999 V2000
    6.7238    6.0687   -0.6021 C   0  0  0  0  0  0  0  0  0  0  0  0
    5.9402    5.3434    0.4583 C   0  0  0  0  0  0  0  0  0  0  0  0
    4.7051    5.3708    0.5363 O   0  0  0  0  0  0  0  0  0  0  0  0
    6.6699    4.6086    1.3930 O   0  0  0  0  0  0  0  0  0  0  0  0
    6.1295    3.8626    2.4393 C   0  0  0  0  0  0  0  0  0  0  0  0
    5.3405    2.6805    2.0606 C   0  0  0  0  0  0  0  0  0  0  0  0
    4.8460    1.9898    2.9760 O   0  0  0  0  0  0  0  0  0  0  0  0
    5.1070    2.2814    0.7277 N   0  0  0  0  0  0  0  0  0  0  0  0
    4.3208    1.0872    0.4195 C   0  0  2  0  0  0  0  0  0  0  0  0
    5.0985    0.3686   -0.6607 C   0  0  0  0  0  0  0  0  0  0  0  0
    6.4463   -0.0808   -0.3237 C   0  0  0  0  0  0  0  0  0  0  0  0
    7.5774    0.6979   -0.4270 C   0  0  0  0  0  0  0  0  0  0  0  0
    8.8173    0.1616   -0.1398 C   0  0  0  0  0  0  0  0  0  0  0  0
    8.9488   -1.1656    0.2576 C   0  0  0  0  0  0  0  0  0  0  0  0
    7.8041   -1.9548    0.3630 C   0  0  0  0  0  0  0  0  0  0  0  0
    6.5774   -1.4224    0.0776 C   0  0  0  0  0  0  0  0  0  0  0  0
    3.0181    1.4493   -0.2717 C   0  0  0  0  0  0  0  0  0  0  0  0
    2.9143    2.6253   -0.6054 O   0  0  0  0  0  0  0  0  0  0  0  0
    2.0498    0.4368   -0.4821 N   0  0  0  0  0  0  0  0  0  0  0  0
    1.1448   -0.5040   -0.6804 C   0  0  1  0  0  0  0  0  0  0  0  0
    0.8037   -1.3181    0.5437 C   0  0  0  0  0  0  0  0  0  0  0  0
    1.8085   -2.0870    1.2212 C   0  0  0  0  0  0  0  0  0  0  0  0
    2.3622   -1.6210    2.4079 C   0  0  0  0  0  0  0  0  0  0  0  0
    3.3282   -2.2954    3.1295 C   0  0  0  0  0  0  0  0  0  0  0  0
    3.7873   -3.4928    2.6741 C   0  0  0  0  0  0  0  0  0  0  0  0
    3.2474   -3.9861    1.4762 C   0  0  0  0  0  0  0  0  0  0  0  0
    2.2946   -3.3110    0.7760 C   0  0  0  0  0  0  0  0  0  0  0  0
   -0.2230   -0.1312   -1.3245 C   0  0  0  0  0  0  0  0  0  0  0  0
   -0.4092    1.0289   -1.6082 O   0  0  0  0  0  0  0  0  0  0  0  0
   -1.1340   -1.1258   -1.5342 N   0  0  0  0  0  0  0  0  0  0  0  0
   -2.4458   -1.2698   -2.0656 C   0  0  1  0  0  0  0  0  0  0  0  0
   -2.4338   -2.5249   -2.8655 C   0  0  0  0  0  0  0  0  0  0  0  0
   -3.6940   -2.9752   -3.5155 C   0  0  0  0  0  0  0  0  0  0  0  0
   -4.0934   -2.6636   -4.7902 C   0  0  0  0  0  0  0  0  0  0  0  0
   -5.5673   -3.5179   -4.9358 S   0  0  0  0  0  0  0  0  0  0  0  0
   -5.6115   -4.2238   -3.3828 C   0  0  0  0  0  0  0  0  0  0  0  0
   -4.5061   -3.7728   -2.8403 N   0  0  0  0  0  0  0  0  0  0  0  0
   -3.5634   -1.1295   -1.0635 C   0  0  1  0  0  0  0  0  0  0  0  0
   -3.4863   -2.0964    0.0706 C   0  0  0  0  0  0  0  0  0  0  0  0
   -4.5933   -2.0379    1.0502 C   0  0  0  0  0  0  0  0  0  0  0  0
   -5.8170   -2.6745    0.7566 C   0  0  0  0  0  0  0  0  0  0  0  0
   -6.8470   -2.6886    1.6272 C   0  0  0  0  0  0  0  0  0  0  0  0
   -6.7434   -2.0698    2.8640 C   0  0  0  0  0  0  0  0  0  0  0  0
   -5.5541   -1.4454    3.1655 C   0  0  0  0  0  0  0  0  0  0  0  0
   -4.4938   -1.4273    2.2795 C   0  0  0  0  0  0  0  0  0  0  0  0
   -3.8578    0.2338   -0.6212 C   0  0  0  0  0  0  0  0  0  0  0  0
   -3.1125    0.6994    0.3137 O   0  0  0  0  0  0  0  0  0  0  0  0
   -4.8453    1.1410   -1.0687 N   0  0  0  0  0  0  0  0  0  0  0  0
   -5.0486    2.4900   -0.5569 C   0  0  0  0  0  0  0  0  0  0  0  0
   -6.0528    2.6948    0.5029 C   0  0  0  0  0  0  0  0  0  0  0  0
   -6.0867    4.2572    0.6924 C   0  0  0  0  0  0  0  0  0  0  0  0
   -5.7305    2.2259    1.8956 C   0  0  0  0  0  0  0  0  0  0  0  0
   -5.8063    0.8445   -2.1086 C   0  0  0  0  0  0  0  0  0  0  0  0
   -5.9490   -0.2759   -2.8511 O   0  0  0  0  0  0  0  0  0  0  0  0
   -6.6745    1.7619   -2.3971 O   0  0  0  0  0  0  0  0  0  0  0  0
    7.8198    6.0454   -0.3263 H   0  0  0  0  0  0  0  0  0  0  0  0
    6.6339    5.5540   -1.5845 H   0  0  0  0  0  0  0  0  0  0  0  0
    6.3907    7.0998   -0.6740 H   0  0  0  0  0  0  0  0  0  0  0  0
    5.4783    4.5596    3.0582 H   0  0  0  0  0  0  0  0  0  0  0  0
    6.9811    3.5690    3.1325 H   0  0  0  0  0  0  0  0  0  0  0  0
    5.4792    2.7870   -0.0773 H   0  0  0  0  0  0  0  0  0  0  0  0
    4.1868    0.4898    1.2921 H   0  0  0  0  0  0  0  0  0  0  0  0
    4.4709   -0.5145   -0.9822 H   0  0  0  0  0  0  0  0  0  0  0  0
    5.1119    1.0007   -1.6043 H   0  0  0  0  0  0  0  0  0  0  0  0
    7.5018    1.7218   -0.7275 H   0  0  0  0  0  0  0  0  0  0  0  0
    9.7441    0.7210   -0.2031 H   0  0  0  0  0  0  0  0  0  0  0  0
    9.8827   -1.6217    0.4936 H   0  0  0  0  0  0  0  0  0  0  0  0
    7.8825   -3.0037    0.6708 H   0  0  0  0  0  0  0  0  0  0  0  0
    5.6986   -2.0518    0.1585 H   0  0  0  0  0  0  0  0  0  0  0  0
    1.3752    1.2967   -1.3085 H   0  0  0  0  0  0  0  0  0  0  0  0
    1.5004   -1.1695   -1.5572 H   0  0  0  0  0  0  0  0  0  0  0  0
    0.3975   -0.5759    1.3315 H   0  0  0  0  0  0  0  0  0  0  0  0
   -0.1173   -1.9222    0.3576 H   0  0  0  0  0  0  0  0  0  0  0  0
    2.0281   -0.6601    2.8410 H   0  0  0  0  0  0  0  0  0  0  0  0
    3.7089   -1.8784    4.0381 H   0  0  0  0  0  0  0  0  0  0  0  0
    4.5276   -4.0466    3.1988 H   0  0  0  0  0  0  0  0  0  0  0  0
    3.6318   -4.9402    1.1420 H   0  0  0  0  0  0  0  0  0  0  0  0
    1.9089   -3.7252   -0.1369 H   0  0  0  0  0  0  0  0  0  0  0  0
   -0.7529   -2.1197   -1.2398 H   0  0  0  0  0  0  0  0  0  0  0  0
   -2.5975   -0.4402   -2.7812 H   0  0  0  0  0  0  0  0  0  0  0  0
   -1.9241   -3.3819   -2.3653 H   0  0  0  0  0  0  0  0  0  0  0  0
   -1.7300   -2.3355   -3.7388 H   0  0  0  0  0  0  0  0  0  0  0  0
   -3.5764   -2.0226   -5.5324 H   0  0  0  0  0  0  0  0  0  0  0  0
   -6.3743   -4.9013   -2.9383 H   0  0  0  0  0  0  0  0  0  0  0  0
   -4.4956   -1.4914   -1.6070 H   0  0  0  0  0  0  0  0  0  0  0  0
   -2.5690   -1.8262    0.7172 H   0  0  0  0  0  0  0  0  0  0  0  0
   -3.3078   -3.1447   -0.1717 H   0  0  0  0  0  0  0  0  0  0  0  0
   -5.8863   -3.1453   -0.2039 H   0  0  0  0  0  0  0  0  0  0  0  0
   -7.7856   -3.1858    1.3589 H   0  0  0  0  0  0  0  0  0  0  0  0
   -7.5861   -2.0848    3.5539 H   0  0  0  0  0  0  0  0  0  0  0  0
   -5.4351   -0.9565    4.1060 H   0  0  0  0  0  0  0  0  0  0  0  0
   -3.5793   -0.9253    2.5822 H   0  0  0  0  0  0  0  0  0  0  0  0
   -5.2853    3.1374   -1.4330 H   0  0  0  0  0  0  0  0  0  0  0  0
   -4.0355    2.7894   -0.1265 H   0  0  0  0  0  0  0  0  0  0  0  0
   -7.1006    2.4245    0.2600 H   0  0  0  0  0  0  0  0  0  0  0  0
   -5.0596    4.5097    0.9940 H   0  0  0  0  0  0  0  0  0  0  0  0
   -6.4549    4.7538   -0.2031 H   0  0  0  0  0  0  0  0  0  0  0  0
   -6.7441    4.4436    1.6013 H   0  0  0  0  0  0  0  0  0  0  0  0
   -5.5027    3.0803    2.6142 H   0  0  0  0  0  0  0  0  0  0  0  0
   -4.9191    1.5393    2.0155 H   0  0  0  0  0  0  0  0  0  0  0  0
   -6.6524    1.7110    2.3375 H   0  0  0  0  0  0  0  0  0  0  0  0
   -6.3002   -0.2838   -3.8154 H   0  0  0  0  0  0  0  0  0  0  0  0
  1  2  1  0
  2  3  2  0
  2  4  1  0
  4  5  1  0
  5  6  1  0
  6  7  2  0
  6  8  1  0
  8  9  1  0
  9 10  1  0
 10 11  1  0
 11 12  2  0
 12 13  1  0
 13 14  2  0
 14 15  1  0
 15 16  2  0
  9 17  1  0
 17 18  2  0
 17 19  1  0
 19 20  1  0
 20 21  1  0
 21 22  1  0
 22 23  2  0
 23 24  1  0
 24 25  2  0
 25 26  1  0
 26 27  2  0
 20 28  1  0
 28 29  2  0
 28 30  1  0
 30 31  1  0
 31 32  1  0
 32 33  1  0
 33 34  2  0
 34 35  1  0
 35 36  1  0
 36 37  2  0
 31 38  1  0
 38 39  1  0
 39 40  1  0
 40 41  2  0
 41 42  1  0
 42 43  2  0
 43 44  1  0
 44 45  2  0
 38 46  1  0
 46 47  2  0
 46 48  1  0
 48 49  1  0
 49 50  1  0
 50 51  1  0
 50 52  1  0
 48 53  1  0
 53 54  1  0
 53 55  2  0
 16 11  1  0
 27 22  1  0
 37 33  1  0
 45 40  1  0
  1 56  1  0
  1 57  1  0
  1 58  1  0
  5 59  1  0
  5 60  1  0
  8 61  1  0
  9 62  1  1
 10 63  1  0
 10 64  1  0
 12 65  1  0
 13 66  1  0
 14 67  1  0
 15 68  1  0
 16 69  1  0
 19 70  1  0
 20 71  1  6
 21 72  1  0
 21 73  1  0
 23 74  1  0
 24 75  1  0
 25 76  1  0
 26 77  1  0
 27 78  1  0
 30 79  1  0
 31 80  1  6
 32 81  1  0
 32 82  1  0
 34 83  1  0
 36 84  1  0
 38 85  1  6
 39 86  1  0
 39 87  1  0
 41 88  1  0
 42 89  1  0
 43 90  1  0
 44 91  1  0
 45 92  1  0
 49 93  1  0
 49 94  1  0
 50 95  1  0
 51 96  1  0
 51 97  1  0
 51 98  1  0
 52 99  1  0
 52100  1  0
 52101  1  0
 54102  1  0
M  END
$$$$
