[H]c1nc(N2C([H])([H])C([H])([H])c3nc(N4C([H])([H])C([H])([H])C([H])([H])C([H])([H])C4([H])[H])nc(N([H])c4c([H])c([H])c(C(F)(F)F)c([H])c4[H])c3C([H])([H])C2([H])[H])c(C(F)(F)F)c([H])c1[H]
     RDKit          3D

 64 68  0  0  0  0  0  0  0  0999 V2000
   -2.7750    7.8304   -0.8253 F   0  0  0  0  0  0  0  0  0  0  0  0
   -1.7112    7.4574   -0.0650 C   0  0  0  0  0  0  0  0  0  0  0  0
   -0.6282    8.2358   -0.4215 F   0  0  0  0  0  0  0  0  0  0  0  0
   -1.9655    7.7581    1.2630 F   0  0  0  0  0  0  0  0  0  0  0  0
   -1.3582    6.0032   -0.2170 C   0  0  0  0  0  0  0  0  0  0  0  0
   -0.0192    5.6894   -0.4062 C   0  0  0  0  0  0  0  0  0  0  0  0
    0.3328    4.3840   -0.5140 C   0  0  0  0  0  0  0  0  0  0  0  0
   -0.5453    3.3074   -0.4585 C   0  0  0  0  0  0  0  0  0  0  0  0
   -0.0583    2.0284   -0.5589 N   0  0  0  0  0  0  0  0  0  0  0  0
   -0.5808    0.7295   -0.5215 C   0  0  0  0  0  0  0  0  0  0  0  0
   -1.8067    0.3509   -0.0922 N   0  0  0  0  0  0  0  0  0  0  0  0
   -2.1720   -0.9445    0.1063 C   0  0  0  0  0  0  0  0  0  0  0  0
   -1.2872   -1.9281   -0.1253 N   0  0  0  0  0  0  0  0  0  0  0  0
   -0.0599   -1.6468   -0.5518 C   0  0  0  0  0  0  0  0  0  0  0  0
    0.8704   -2.7930   -0.7199 C   0  0  0  0  0  0  0  0  0  0  0  0
    2.0973   -2.4973    0.1775 C   0  0  0  0  0  0  0  0  0  0  0  0
    2.9779   -1.4967   -0.2801 N   0  0  0  0  0  0  0  0  0  0  0  0
    2.7910   -0.1061   -0.6861 C   0  0  0  0  0  0  0  0  0  0  0  0
    1.5157    0.1143   -1.4036 C   0  0  0  0  0  0  0  0  0  0  0  0
    0.2837   -0.3241   -0.7517 C   0  0  0  0  0  0  0  0  0  0  0  0
    4.3323   -1.8363   -0.4143 C   0  0  0  0  0  0  0  0  0  0  0  0
    4.7566   -1.9841   -1.7376 N   0  0  0  0  0  0  0  0  0  0  0  0
    6.0585   -2.3039   -1.9762 C   0  0  0  0  0  0  0  0  0  0  0  0
    6.9714   -2.4854   -0.9691 C   0  0  0  0  0  0  0  0  0  0  0  0
    6.5150   -2.3317    0.3243 C   0  0  0  0  0  0  0  0  0  0  0  0
    5.1858   -2.0014    0.6101 C   0  0  0  0  0  0  0  0  0  0  0  0
    4.8038   -1.8212    1.9974 C   0  0  0  0  0  0  0  0  0  0  0  0
    4.3192   -0.5697    2.3272 F   0  0  0  0  0  0  0  0  0  0  0  0
    6.0120   -1.8550    2.7788 F   0  0  0  0  0  0  0  0  0  0  0  0
    4.0831   -2.8370    2.5703 F   0  0  0  0  0  0  0  0  0  0  0  0
   -3.4994   -1.2911    0.4771 N   0  0  0  0  0  0  0  0  0  0  0  0
   -3.7565   -2.0006    1.6917 C   0  0  0  0  0  0  0  0  0  0  0  0
   -4.8955   -2.9532    1.6323 C   0  0  0  0  0  0  0  0  0  0  0  0
   -6.0545   -2.4402    0.8400 C   0  0  0  0  0  0  0  0  0  0  0  0
   -5.5705   -2.0552   -0.5408 C   0  0  0  0  0  0  0  0  0  0  0  0
   -4.5578   -0.9296   -0.4603 C   0  0  0  0  0  0  0  0  0  0  0  0
   -1.8570    3.6605   -0.2704 C   0  0  0  0  0  0  0  0  0  0  0  0
   -2.2830    4.9941   -0.1482 C   0  0  0  0  0  0  0  0  0  0  0  0
    0.7165    6.4917   -0.4590 H   0  0  0  0  0  0  0  0  0  0  0  0
    1.4092    4.1695   -0.6432 H   0  0  0  0  0  0  0  0  0  0  0  0
    1.0530    2.0161   -0.6236 H   0  0  0  0  0  0  0  0  0  0  0  0
    1.1607   -2.9230   -1.7515 H   0  0  0  0  0  0  0  0  0  0  0  0
    0.4223   -3.6921   -0.2248 H   0  0  0  0  0  0  0  0  0  0  0  0
    2.5983   -3.4929    0.2396 H   0  0  0  0  0  0  0  0  0  0  0  0
    1.6319   -2.2921    1.1667 H   0  0  0  0  0  0  0  0  0  0  0  0
    2.9535    0.6280    0.1087 H   0  0  0  0  0  0  0  0  0  0  0  0
    3.6149    0.1426   -1.4339 H   0  0  0  0  0  0  0  0  0  0  0  0
    1.5961   -0.6178   -2.3325 H   0  0  0  0  0  0  0  0  0  0  0  0
    1.4731    1.0599   -1.9468 H   0  0  0  0  0  0  0  0  0  0  0  0
    6.3734   -2.4084   -3.0150 H   0  0  0  0  0  0  0  0  0  0  0  0
    8.0143   -2.7299   -1.1876 H   0  0  0  0  0  0  0  0  0  0  0  0
    7.2336   -2.4495    1.1251 H   0  0  0  0  0  0  0  0  0  0  0  0
   -2.8629   -2.5206    2.0543 H   0  0  0  0  0  0  0  0  0  0  0  0
   -3.9773   -1.2117    2.4771 H   0  0  0  0  0  0  0  0  0  0  0  0
   -4.6002   -3.9314    1.1388 H   0  0  0  0  0  0  0  0  0  0  0  0
   -5.2164   -3.2025    2.6890 H   0  0  0  0  0  0  0  0  0  0  0  0
   -6.4796   -1.5431    1.3531 H   0  0  0  0  0  0  0  0  0  0  0  0
   -6.8351   -3.2053    0.7108 H   0  0  0  0  0  0  0  0  0  0  0  0
   -6.4216   -1.7851   -1.1593 H   0  0  0  0  0  0  0  0  0  0  0  0
   -5.0772   -2.9826   -0.9620 H   0  0  0  0  0  0  0  0  0  0  0  0
   -4.1579   -0.7623   -1.4648 H   0  0  0  0  0  0  0  0  0  0  0  0
   -5.1200   -0.0047   -0.1560 H   0  0  0  0  0  0  0  0  0  0  0  0
   -2.6339    2.9151   -0.2015 H   0  0  0  0  0  0  0  0  0  0  0  0
   -3.3333    5.2209   -0.0182 H   0  0  0  0  0  0  0  0  0  0  0  0
  1  2  1  0
  2  3  1  0
  2  4  1  0
  2  5  1  0
  5  6  2  0
  6  7  1  0
  7  8  2  0
  8  9  1  0
  9 10  1  0
 10 11  2  0
 11 12  1  0
 12 13  2  0
 13 14  1  0
 14 15  1  0
 15 16  1  0
 16 17  1  0
 17 18  1  0
 18 19  1  0
 19 20  1  0
 17 21  1  0
 21 22  2  0
 22 23  1  0
 23 24  2  0
 24 25  1  0
 25 26  2  0
 26 27  1  0
 27 28  1  0
 27 29  1  0
 27 30  1  0
 12 31  1  0
 31 32  1  0
 32 33  1  0
 33 34  1  0
 34 35  1  0
 35 36  1  0
  8 37  1  0
 37 38  2  0
 38  5  1  0
 20 10  1  0
 26 21  1  0
 36 31  1  0
 20 14  2  0
  6 39  1  0
  7 40  1  0
  9 41  1  0
 15 42  1  0
 15 43  1  0
 16 44  1  0
 16 45  1  0
 18 46  1  0
 18 47  1  0
 19 48  1  0
 19 49  1  0
 23 50  1  0
 24 51  1  0
 25 52  1  0
 32 53  1  0
 32 54  1  0
 33 55  1  0
 33 56  1  0
 34 57  1  0
 34 58  1  0
 35 59  1  0
 35 60  1  0
 36 61  1  0
 36 62  1  0
 37 63  1  0
 38 64  1  0
M  END
$$$$
[H]c1nc(N2C([H])([H])C([H])([H])c3nc(N4C([H])([H])C([H])([H])OC([H])([H])C4([H])[H])nc(N([H])c4c([H])c([H])c(C(F)(F)F)c([H])c4[H])c3C([H])([H])C2([H])[H])c(C(F)(F)F)c([H])c1[H]
     RDKit          3D

 62 66  0  0  0  0  0  0  0  0999 V2000
   -3.9360    7.3904   -0.3998 F   0  0  0  0  0  0  0  0  0  0  0  0
   -2.6402    7.2533   -0.1009 C   0  0  0  0  0  0  0  0  0  0  0  0
   -1.8846    7.7670   -1.1430 F   0  0  0  0  0  0  0  0  0  0  0  0
   -2.2922    8.0051    1.0414 F   0  0  0  0  0  0  0  0  0  0  0  0
   -2.1658    5.8293    0.0694 C   0  0  0  0  0  0  0  0  0  0  0  0
   -3.0192    4.7626    0.1176 C   0  0  0  0  0  0  0  0  0  0  0  0
   -2.4747    3.4702    0.2875 C   0  0  0  0  0  0  0  0  0  0  0  0
   -1.1183    3.2982    0.4043 C   0  0  0  0  0  0  0  0  0  0  0  0
   -0.5086    2.0656    0.5315 N   0  0  0  0  0  0  0  0  0  0  0  0
   -0.8426    0.7111    0.3484 C   0  0  0  0  0  0  0  0  0  0  0  0
   -2.0826    0.1836    0.2748 N   0  0  0  0  0  0  0  0  0  0  0  0
   -2.2956   -1.1509    0.2410 C   0  0  0  0  0  0  0  0  0  0  0  0
   -1.2622   -2.0202    0.2796 N   0  0  0  0  0  0  0  0  0  0  0  0
    0.0239   -1.5795    0.3528 C   0  0  0  0  0  0  0  0  0  0  0  0
    1.0013   -2.6804    0.4565 C   0  0  0  0  0  0  0  0  0  0  0  0
    2.1347   -2.6597   -0.5014 C   0  0  0  0  0  0  0  0  0  0  0  0
    2.8449   -1.4660   -0.6953 N   0  0  0  0  0  0  0  0  0  0  0  0
    2.3893   -0.1193   -0.7898 C   0  0  0  0  0  0  0  0  0  0  0  0
    1.5182    0.4449    0.2828 C   0  0  0  0  0  0  0  0  0  0  0  0
    0.1929   -0.2256    0.3798 C   0  0  0  0  0  0  0  0  0  0  0  0
    4.2360   -1.5513   -0.9579 C   0  0  0  0  0  0  0  0  0  0  0  0
    4.5287   -1.4200   -2.3263 N   0  0  0  0  0  0  0  0  0  0  0  0
    5.7505   -1.4832   -2.7894 C   0  0  0  0  0  0  0  0  0  0  0  0
    6.8351   -1.6759   -1.9820 C   0  0  0  0  0  0  0  0  0  0  0  0
    6.5887   -1.8077   -0.6352 C   0  0  0  0  0  0  0  0  0  0  0  0
    5.2735   -1.7417   -0.1384 C   0  0  0  0  0  0  0  0  0  0  0  0
    5.0514   -1.8372    1.3386 C   0  0  0  0  0  0  0  0  0  0  0  0
    4.4421   -0.7514    1.8822 F   0  0  0  0  0  0  0  0  0  0  0  0
    6.3702   -1.8230    1.9099 F   0  0  0  0  0  0  0  0  0  0  0  0
    4.5216   -3.0367    1.7358 F   0  0  0  0  0  0  0  0  0  0  0  0
   -3.5633   -1.7597    0.1808 N   0  0  0  0  0  0  0  0  0  0  0  0
   -4.5908   -1.7584    1.2000 C   0  0  0  0  0  0  0  0  0  0  0  0
   -4.9246   -3.2022    1.5772 C   0  0  0  0  0  0  0  0  0  0  0  0
   -4.9813   -4.0524    0.4920 O   0  0  0  0  0  0  0  0  0  0  0  0
   -5.1231   -3.3475   -0.6899 C   0  0  0  0  0  0  0  0  0  0  0  0
   -3.9327   -2.4776   -1.0408 C   0  0  0  0  0  0  0  0  0  0  0  0
   -0.2952    4.4214    0.3487 C   0  0  0  0  0  0  0  0  0  0  0  0
   -0.8188    5.6573    0.1849 C   0  0  0  0  0  0  0  0  0  0  0  0
   -4.0646    4.9312    0.0345 H   0  0  0  0  0  0  0  0  0  0  0  0
   -3.1972    2.6707    0.2976 H   0  0  0  0  0  0  0  0  0  0  0  0
    0.4951    2.1671    0.9914 H   0  0  0  0  0  0  0  0  0  0  0  0
    0.4292   -3.6446    0.2300 H   0  0  0  0  0  0  0  0  0  0  0  0
    1.3430   -2.7147    1.5154 H   0  0  0  0  0  0  0  0  0  0  0  0
    1.6739   -2.9953   -1.5052 H   0  0  0  0  0  0  0  0  0  0  0  0
    2.7597   -3.5707   -0.2691 H   0  0  0  0  0  0  0  0  0  0  0  0
    1.7915   -0.0243   -1.7549 H   0  0  0  0  0  0  0  0  0  0  0  0
    3.2459    0.6155   -0.8986 H   0  0  0  0  0  0  0  0  0  0  0  0
    1.2818    1.4826   -0.2109 H   0  0  0  0  0  0  0  0  0  0  0  0
    1.9802    0.6752    1.2418 H   0  0  0  0  0  0  0  0  0  0  0  0
    5.9539   -1.3821   -3.8571 H   0  0  0  0  0  0  0  0  0  0  0  0
    7.8410   -1.7330   -2.3640 H   0  0  0  0  0  0  0  0  0  0  0  0
    7.3753   -1.9810    0.0788 H   0  0  0  0  0  0  0  0  0  0  0  0
   -5.5123   -1.2902    0.7853 H   0  0  0  0  0  0  0  0  0  0  0  0
   -4.2015   -1.2638    2.0936 H   0  0  0  0  0  0  0  0  0  0  0  0
   -5.8841   -3.2116    2.1245 H   0  0  0  0  0  0  0  0  0  0  0  0
   -4.0971   -3.5095    2.2724 H   0  0  0  0  0  0  0  0  0  0  0  0
   -6.0544   -2.7634   -0.6838 H   0  0  0  0  0  0  0  0  0  0  0  0
   -5.2035   -4.0933   -1.5009 H   0  0  0  0  0  0  0  0  0  0  0  0
   -4.3031   -1.7412   -1.7916 H   0  0  0  0  0  0  0  0  0  0  0  0
   -3.1684   -3.1230   -1.4301 H   0  0  0  0  0  0  0  0  0  0  0  0
    0.7628    4.3058    0.4152 H   0  0  0  0  0  0  0  0  0  0  0  0
   -0.1975    6.5613    0.1262 H   0  0  0  0  0  0  0  0  0  0  0  0
  1  2  1  0
  2  3  1  0
  2  4  1  0
  2  5  1  0
  5  6  2  0
  6  7  1  0
  7  8  2  0
  8  9  1  0
  9 10  1  0
 10 11  2  0
 11 12  1  0
 12 13  2  0
 13 14  1  0
 14 15  1  0
 15 16  1  0
 16 17  1  0
 17 18  1  0
 18 19  1  0
 19 20  1  0
 17 21  1  0
 21 22  2  0
 22 23  1  0
 23 24  2  0
 24 25  1  0
 25 26  2  0
 26 27  1  0
 27 28  1  0
 27 29  1  0
 27 30  1  0
 12 31  1  0
 31 32  1  0
 32 33  1  0
 33 34  1  0
 34 35  1  0
 35 36  1  0
  8 37  1  0
 37 38  2  0
 38  5  1  0
 20 10  1  0
 26 21  1  0
 36 31  1  0
 20 14  2  0
  6 39  1  0
  7 40  1  0
  9 41  1  0
 15 42  1  0
 15 43  1  0
 16 44  1  0
 16 45  1  0
 18 46  1  0
 18 47  1  0
 19 48  1  0
 19 49  1  0
 23 50  1  0
 24 51  1  0
 25 52  1  0
 32 53  1  0
 32 54  1  0
 33 55  1  0
 33 56  1  0
 35 57  1  0
 35 58  1  0
 36 59  1  0
 36 60  1  0
 37 61  1  0
 38 62  1  0
M  END
$$$$
[H]c1nc(N2C([H])([H])C([H])([H])c3nc(N4C([H])([H])C([H])([H])C([H])([H])C4([H])[H])nc(N([H])c4c([H])c([H])c(C(F)(F)F)c([H])c4[H])c3C([H])([H])C2([H])[H])c(C(F)(F)F)c([H])c1[H]
     RDKit          3D

 61 65  0  0  0  0  0  0  0  0999 V2000
   -4.6015    6.0769   -2.0092 F   0  0  0  0  0  0  0  0  0  0  0  0
   -4.5772    5.9317   -0.6389 C   0  0  0  0  0  0  0  0  0  0  0  0
   -3.9547    7.0832   -0.1270 F   0  0  0  0  0  0  0  0  0  0  0  0
   -5.8639    5.9226   -0.1888 F   0  0  0  0  0  0  0  0  0  0  0  0
   -3.8349    4.7200   -0.2297 C   0  0  0  0  0  0  0  0  0  0  0  0
   -2.6319    4.4384   -0.8562 C   0  0  0  0  0  0  0  0  0  0  0  0
   -1.8569    3.3716   -0.5395 C   0  0  0  0  0  0  0  0  0  0  0  0
   -2.2315    2.4425    0.4819 C   0  0  0  0  0  0  0  0  0  0  0  0
   -1.2507    1.5010    0.7917 N   0  0  0  0  0  0  0  0  0  0  0  0
   -1.1250    0.1921    0.3776 C   0  0  0  0  0  0  0  0  0  0  0  0
   -2.0658   -0.6452   -0.0152 N   0  0  0  0  0  0  0  0  0  0  0  0
   -1.8106   -1.9723   -0.2657 C   0  0  0  0  0  0  0  0  0  0  0  0
   -0.5504   -2.4323   -0.1010 N   0  0  0  0  0  0  0  0  0  0  0  0
    0.4829   -1.6411    0.3045 C   0  0  0  0  0  0  0  0  0  0  0  0
    1.6845   -2.4610    0.3524 C   0  0  0  0  0  0  0  0  0  0  0  0
    2.9829   -1.8292    0.5790 C   0  0  0  0  0  0  0  0  0  0  0  0
    3.1980   -0.4680    0.2126 N   0  0  0  0  0  0  0  0  0  0  0  0
    2.2856    0.5264   -0.2091 C   0  0  0  0  0  0  0  0  0  0  0  0
    1.1689    0.7300    0.8537 C   0  0  0  0  0  0  0  0  0  0  0  0
    0.1698   -0.3560    0.5311 C   0  0  0  0  0  0  0  0  0  0  0  0
    4.5431    0.0130    0.3245 C   0  0  0  0  0  0  0  0  0  0  0  0
    4.9203    0.3692    1.6102 N   0  0  0  0  0  0  0  0  0  0  0  0
    6.1781    0.7825    1.8402 C   0  0  0  0  0  0  0  0  0  0  0  0
    7.0861    0.8463    0.8070 C   0  0  0  0  0  0  0  0  0  0  0  0
    6.7079    0.4975   -0.4452 C   0  0  0  0  0  0  0  0  0  0  0  0
    5.3824    0.0600   -0.7180 C   0  0  0  0  0  0  0  0  0  0  0  0
    5.1033   -0.2609   -2.1230 C   0  0  0  0  0  0  0  0  0  0  0  0
    4.1780    0.6123   -2.6562 F   0  0  0  0  0  0  0  0  0  0  0  0
    4.7559   -1.5855   -2.3843 F   0  0  0  0  0  0  0  0  0  0  0  0
    6.2608   -0.0789   -2.9061 F   0  0  0  0  0  0  0  0  0  0  0  0
   -2.8174   -2.8608   -0.6723 N   0  0  0  0  0  0  0  0  0  0  0  0
   -4.2053   -2.7356   -0.9635 C   0  0  0  0  0  0  0  0  0  0  0  0
   -4.8120   -3.8617   -0.1282 C   0  0  0  0  0  0  0  0  0  0  0  0
   -3.7006   -4.8917   -0.0569 C   0  0  0  0  0  0  0  0  0  0  0  0
   -2.5782   -4.3201   -0.8941 C   0  0  0  0  0  0  0  0  0  0  0  0
   -3.4116    2.7142    1.0899 C   0  0  0  0  0  0  0  0  0  0  0  0
   -4.2188    3.8322    0.7574 C   0  0  0  0  0  0  0  0  0  0  0  0
   -2.2920    5.1248   -1.6312 H   0  0  0  0  0  0  0  0  0  0  0  0
   -0.9112    3.1620   -1.0669 H   0  0  0  0  0  0  0  0  0  0  0  0
   -0.5264    1.8640    1.5805 H   0  0  0  0  0  0  0  0  0  0  0  0
    1.5321   -3.2338    1.1945 H   0  0  0  0  0  0  0  0  0  0  0  0
    1.6504   -3.1772   -0.5539 H   0  0  0  0  0  0  0  0  0  0  0  0
    3.3216   -1.9505    1.6942 H   0  0  0  0  0  0  0  0  0  0  0  0
    3.7634   -2.4410    0.0800 H   0  0  0  0  0  0  0  0  0  0  0  0
    2.7296    1.5125   -0.3585 H   0  0  0  0  0  0  0  0  0  0  0  0
    1.7390    0.3105   -1.1528 H   0  0  0  0  0  0  0  0  0  0  0  0
    0.8329    1.7318    0.6489 H   0  0  0  0  0  0  0  0  0  0  0  0
    1.5072    0.5851    1.8759 H   0  0  0  0  0  0  0  0  0  0  0  0
    6.5171    1.0857    2.8514 H   0  0  0  0  0  0  0  0  0  0  0  0
    8.1429    1.1771    0.9621 H   0  0  0  0  0  0  0  0  0  0  0  0
    7.4212    0.5397   -1.2485 H   0  0  0  0  0  0  0  0  0  0  0  0
   -4.3054   -3.0849   -2.0374 H   0  0  0  0  0  0  0  0  0  0  0  0
   -4.6833   -1.7810   -0.7748 H   0  0  0  0  0  0  0  0  0  0  0  0
   -5.0599   -3.4719    0.8500 H   0  0  0  0  0  0  0  0  0  0  0  0
   -5.7110   -4.2637   -0.6004 H   0  0  0  0  0  0  0  0  0  0  0  0
   -3.3567   -5.0048    0.9879 H   0  0  0  0  0  0  0  0  0  0  0  0
   -4.0690   -5.8762   -0.4827 H   0  0  0  0  0  0  0  0  0  0  0  0
   -1.5653   -4.6281   -0.5509 H   0  0  0  0  0  0  0  0  0  0  0  0
   -2.7903   -4.5207   -1.9392 H   0  0  0  0  0  0  0  0  0  0  0  0
   -3.7611    2.0597    1.8883 H   0  0  0  0  0  0  0  0  0  0  0  0
   -5.1155    4.0176    1.3110 H   0  0  0  0  0  0  0  0  0  0  0  0
  1  2  1  0
  2  3  1  0
  2  4  1  0
  2  5  1  0
  5  6  2  0
  6  7  1  0
  7  8  2  0
  8  9  1  0
  9 10  1  0
 10 11  2  0
 11 12  1  0
 12 13  2  0
 13 14  1  0
 14 15  1  0
 15 16  1  0
 16 17  1  0
 17 18  1  0
 18 19  1  0
 19 20  1  0
 17 21  1  0
 21 22  2  0
 22 23  1  0
 23 24  2  0
 24 25  1  0
 25 26  2  0
 26 27  1  0
 27 28  1  0
 27 29  1  0
 27 30  1  0
 12 31  1  0
 31 32  1  0
 32 33  1  0
 33 34  1  0
 34 35  1  0
  8 36  1  0
 36 37  2  0
 37  5  1  0
 20 10  1  0
 26 21  1  0
 35 31  1  0
 20 14  2  0
  6 38  1  0
  7 39  1  0
  9 40  1  0
 15 41  1  0
 15 42  1  0
 16 43  1  0
 16 44  1  0
 18 45  1  0
 18 46  1  0
 19 47  1  0
 19 48  1  0
 23 49  1  0
 24 50  1  0
 25 51  1  0
 32 52  1  0
 32 53  1  0
 33 54  1  0
 33 55  1  0
 34 56  1  0
 34 57  1  0
 35 58  1  0
 35 59  1  0
 36 60  1  0
 37 61  1  0
M  END
$$$$
[H]c1nc(N2C([H])([H])C([H])([H])c3nc(N4C([H])([H])C([H])([H])C([H])([H])C([H])([H])C4([H])[H])nc(N([H])c4nc([H])c(C(F)(F)F)c([H])c4[H])c3C([H])([H])C2([H])[H])c(C(F)(F)F)c([H])c1[H]
     RDKit          3D

 63 67  0  0  0  0  0  0  0  0999 V2000
    2.2779    7.9122    0.7391 F   0  0  0  0  0  0  0  0  0  0  0  0
    2.5542    7.0462   -0.3114 C   0  0  0  0  0  0  0  0  0  0  0  0
    3.8601    7.1367   -0.6464 F   0  0  0  0  0  0  0  0  0  0  0  0
    1.7381    7.4752   -1.3664 F   0  0  0  0  0  0  0  0  0  0  0  0
    2.0907    5.6910    0.0145 C   0  0  0  0  0  0  0  0  0  0  0  0
    2.3585    4.5944   -0.7890 C   0  0  0  0  0  0  0  0  0  0  0  0
    1.8769    3.3431   -0.4719 C   0  0  0  0  0  0  0  0  0  0  0  0
    1.1071    3.1545    0.6550 C   0  0  0  0  0  0  0  0  0  0  0  0
    0.4740    1.9642    0.9939 N   0  0  0  0  0  0  0  0  0  0  0  0
    0.6020    0.6468    0.5568 C   0  0  0  0  0  0  0  0  0  0  0  0
    1.7780    0.0880    0.2880 N   0  0  0  0  0  0  0  0  0  0  0  0
    1.9052   -1.2582    0.1050 C   0  0  0  0  0  0  0  0  0  0  0  0
    0.8428   -2.1028    0.1741 N   0  0  0  0  0  0  0  0  0  0  0  0
   -0.3607   -1.5882    0.4297 C   0  0  0  0  0  0  0  0  0  0  0  0
   -1.4420   -2.6380    0.3833 C   0  0  0  0  0  0  0  0  0  0  0  0
   -2.4079   -2.1800   -0.7082 C   0  0  0  0  0  0  0  0  0  0  0  0
   -3.1237   -1.0055   -0.3171 N   0  0  0  0  0  0  0  0  0  0  0  0
   -2.6815    0.3769   -0.3273 C   0  0  0  0  0  0  0  0  0  0  0  0
   -1.6886    0.5660    0.8612 C   0  0  0  0  0  0  0  0  0  0  0  0
   -0.4797   -0.2435    0.6237 C   0  0  0  0  0  0  0  0  0  0  0  0
   -4.4391   -1.1853    0.1715 C   0  0  0  0  0  0  0  0  0  0  0  0
   -4.5941   -1.5117    1.5133 N   0  0  0  0  0  0  0  0  0  0  0  0
   -5.7816   -1.7152    2.0713 C   0  0  0  0  0  0  0  0  0  0  0  0
   -6.8822   -1.5969    1.2557 C   0  0  0  0  0  0  0  0  0  0  0  0
   -6.7605   -1.2781   -0.0736 C   0  0  0  0  0  0  0  0  0  0  0  0
   -5.5163   -1.0572   -0.6617 C   0  0  0  0  0  0  0  0  0  0  0  0
   -5.4301   -0.6818   -2.0662 C   0  0  0  0  0  0  0  0  0  0  0  0
   -4.6893   -1.4857   -2.8730 F   0  0  0  0  0  0  0  0  0  0  0  0
   -5.1373    0.6488   -2.3215 F   0  0  0  0  0  0  0  0  0  0  0  0
   -6.7518   -0.8043   -2.6048 F   0  0  0  0  0  0  0  0  0  0  0  0
    3.1707   -1.9356   -0.0073 N   0  0  0  0  0  0  0  0  0  0  0  0
    4.2125   -1.4868    0.9160 C   0  0  0  0  0  0  0  0  0  0  0  0
    5.3517   -2.4792    0.9172 C   0  0  0  0  0  0  0  0  0  0  0  0
    5.8789   -2.6875   -0.4944 C   0  0  0  0  0  0  0  0  0  0  0  0
    4.8127   -3.1047   -1.4419 C   0  0  0  0  0  0  0  0  0  0  0  0
    3.4284   -2.9885   -0.9136 C   0  0  0  0  0  0  0  0  0  0  0  0
    0.8719    4.2571    1.4320 N   0  0  0  0  0  0  0  0  0  0  0  0
    1.3312    5.4819    1.1503 C   0  0  0  0  0  0  0  0  0  0  0  0
    2.9653    4.7641   -1.6921 H   0  0  0  0  0  0  0  0  0  0  0  0
    2.0993    2.5104   -1.1162 H   0  0  0  0  0  0  0  0  0  0  0  0
   -0.2382    2.0575    1.8268 H   0  0  0  0  0  0  0  0  0  0  0  0
   -1.0429   -3.6070    0.0823 H   0  0  0  0  0  0  0  0  0  0  0  0
   -1.8964   -2.6658    1.3696 H   0  0  0  0  0  0  0  0  0  0  0  0
   -1.7679   -1.9855   -1.6223 H   0  0  0  0  0  0  0  0  0  0  0  0
   -3.1026   -2.9661   -1.0016 H   0  0  0  0  0  0  0  0  0  0  0  0
   -2.1567    0.5996   -1.2678 H   0  0  0  0  0  0  0  0  0  0  0  0
   -3.4850    1.0713   -0.0710 H   0  0  0  0  0  0  0  0  0  0  0  0
   -1.5536    1.6372    0.8923 H   0  0  0  0  0  0  0  0  0  0  0  0
   -2.2177    0.1828    1.7437 H   0  0  0  0  0  0  0  0  0  0  0  0
   -5.8344   -1.9592    3.1039 H   0  0  0  0  0  0  0  0  0  0  0  0
   -7.8462   -1.7914    1.7293 H   0  0  0  0  0  0  0  0  0  0  0  0
   -7.6530   -1.1914   -0.6952 H   0  0  0  0  0  0  0  0  0  0  0  0
    3.7408   -1.5798    1.9555 H   0  0  0  0  0  0  0  0  0  0  0  0
    4.5111   -0.4551    0.7898 H   0  0  0  0  0  0  0  0  0  0  0  0
    5.0101   -3.4634    1.2861 H   0  0  0  0  0  0  0  0  0  0  0  0
    6.1989   -2.0501    1.5086 H   0  0  0  0  0  0  0  0  0  0  0  0
    6.6719   -3.4639   -0.4300 H   0  0  0  0  0  0  0  0  0  0  0  0
    6.3533   -1.6996   -0.7975 H   0  0  0  0  0  0  0  0  0  0  0  0
    4.9700   -4.1908   -1.7379 H   0  0  0  0  0  0  0  0  0  0  0  0
    4.8992   -2.4682   -2.3556 H   0  0  0  0  0  0  0  0  0  0  0  0
    3.1995   -3.9465   -0.3645 H   0  0  0  0  0  0  0  0  0  0  0  0
    2.6913   -3.0077   -1.7633 H   0  0  0  0  0  0  0  0  0  0  0  0
    1.1267    6.3007    1.7713 H   0  0  0  0  0  0  0  0  0  0  0  0
  1  2  1  0
  2  3  1  0
  2  4  1  0
  2  5  1  0
  5  6  2  0
  6  7  1  0
  7  8  2  0
  8  9  1  0
  9 10  1  0
 10 11  2  0
 11 12  1  0
 12 13  2  0
 13 14  1  0
 14 15  1  0
 15 16  1  0
 16 17  1  0
 17 18  1  0
 18 19  1  0
 19 20  1  0
 17 21  1  0
 21 22  2  0
 22 23  1  0
 23 24  2  0
 24 25  1  0
 25 26  2  0
 26 27  1  0
 27 28  1  0
 27 29  1  0
 27 30  1  0
 12 31  1  0
 31 32  1  0
 32 33  1  0
 33 34  1  0
 34 35  1  0
 35 36  1  0
  8 37  1  0
 37 38  2  0
 38  5  1  0
 20 10  1  0
 26 21  1  0
 36 31  1  0
 20 14  2  0
  6 39  1  0
  7 40  1  0
  9 41  1  0
 15 42  1  0
 15 43  1  0
 16 44  1  0
 16 45  1  0
 18 46  1  0
 18 47  1  0
 19 48  1  0
 19 49  1  0
 23 50  1  0
 24 51  1  0
 25 52  1  0
 32 53  1  0
 32 54  1  0
 33 55  1  0
 33 56  1  0
 34 57  1  0
 34 58  1  0
 35 59  1  0
 35 60  1  0
 36 61  1  0
 36 62  1  0
 38 63  1  0
M  END
$$$$
[H]Oc1c([H])c([H])c2c([H])c([H])c([H])c(N([H])C(=O)N([H])c3c([H])c([H])c(Cl)c(C(F)(F)F)c3[H])c2c1[H]
     RDKit          3D

 38 40  0  0  0  0  0  0  0  0999 V2000
   -4.8004    1.7599    2.9006 O   0  0  0  0  0  0  0  0  0  0  0  0
   -4.6814    1.0693    1.7061 C   0  0  0  0  0  0  0  0  0  0  0  0
   -5.7697    0.6974    0.9512 C   0  0  0  0  0  0  0  0  0  0  0  0
   -5.6044    0.0109   -0.2318 C   0  0  0  0  0  0  0  0  0  0  0  0
   -4.3072   -0.3103   -0.6669 C   0  0  0  0  0  0  0  0  0  0  0  0
   -4.1447   -0.9965   -1.8495 C   0  0  0  0  0  0  0  0  0  0  0  0
   -2.9041   -1.3288   -2.3095 C   0  0  0  0  0  0  0  0  0  0  0  0
   -1.7860   -0.9575   -1.5527 C   0  0  0  0  0  0  0  0  0  0  0  0
   -1.8916   -0.2718   -0.3654 C   0  0  0  0  0  0  0  0  0  0  0  0
   -0.8025    0.1221    0.4280 N   0  0  0  0  0  0  0  0  0  0  0  0
    0.5632   -0.1266    0.1262 C   0  0  0  0  0  0  0  0  0  0  0  0
    1.0033   -0.7184   -0.8645 O   0  0  0  0  0  0  0  0  0  0  0  0
    1.5656    0.3465    1.0493 N   0  0  0  0  0  0  0  0  0  0  0  0
    2.9587    0.1958    0.8987 C   0  0  0  0  0  0  0  0  0  0  0  0
    3.7236    0.2173    2.0866 C   0  0  0  0  0  0  0  0  0  0  0  0
    5.0856    0.1071    2.0814 C   0  0  0  0  0  0  0  0  0  0  0  0
    5.7348   -0.0298    0.8735 C   0  0  0  0  0  0  0  0  0  0  0  0
    7.4756   -0.1782    0.7652 Cl  0  0  0  0  0  0  0  0  0  0  0  0
    5.0252   -0.0547   -0.3049 C   0  0  0  0  0  0  0  0  0  0  0  0
    3.6434    0.0585   -0.2848 C   0  0  0  0  0  0  0  0  0  0  0  0
    5.7146   -0.2018   -1.6097 C   0  0  0  0  0  0  0  0  0  0  0  0
    6.3931   -1.4265   -1.5492 F   0  0  0  0  0  0  0  0  0  0  0  0
    4.8053   -0.1774   -2.6222 F   0  0  0  0  0  0  0  0  0  0  0  0
    6.7027    0.7573   -1.7666 F   0  0  0  0  0  0  0  0  0  0  0  0
   -3.1922    0.0453    0.0622 C   0  0  0  0  0  0  0  0  0  0  0  0
   -3.3995    0.7278    1.2341 C   0  0  0  0  0  0  0  0  0  0  0  0
   -4.8891    1.3028    3.8023 H   0  0  0  0  0  0  0  0  0  0  0  0
   -6.7505    0.9457    1.2896 H   0  0  0  0  0  0  0  0  0  0  0  0
   -6.4412   -0.2961   -0.8491 H   0  0  0  0  0  0  0  0  0  0  0  0
   -5.0444   -1.2585   -2.3943 H   0  0  0  0  0  0  0  0  0  0  0  0
   -2.7575   -1.8676   -3.2362 H   0  0  0  0  0  0  0  0  0  0  0  0
   -0.8176   -1.2231   -1.9225 H   0  0  0  0  0  0  0  0  0  0  0  0
   -0.9681    0.6509    1.3353 H   0  0  0  0  0  0  0  0  0  0  0  0
    1.2128    0.8596    1.9212 H   0  0  0  0  0  0  0  0  0  0  0  0
    3.1832    0.3265    3.0363 H   0  0  0  0  0  0  0  0  0  0  0  0
    5.6530    0.1261    3.0039 H   0  0  0  0  0  0  0  0  0  0  0  0
    3.0939    0.0556   -1.2338 H   0  0  0  0  0  0  0  0  0  0  0  0
   -2.5852    1.0413    1.8605 H   0  0  0  0  0  0  0  0  0  0  0  0
  1  2  1  0
  2  3  2  0
  3  4  1  0
  4  5  2  0
  5  6  1  0
  6  7  2  0
  7  8  1  0
  8  9  2  0
  9 10  1  0
 10 11  1  0
 11 12  2  0
 11 13  1  0
 13 14  1  0
 14 15  2  0
 15 16  1  0
 16 17  2  0
 17 18  1  0
 17 19  1  0
 19 20  2  0
 19 21  1  0
 21 22  1  0
 21 23  1  0
 21 24  1  0
  9 25  1  0
 25 26  2  0
 26  2  1  0
 25  5  1  0
 20 14  1  0
  1 27  1  0
  3 28  1  0
  4 29  1  0
  6 30  1  0
  7 31  1  0
  8 32  1  0
 10 33  1  0
 13 34  1  0
 15 35  1  0
 16 36  1  0
 20 37  1  0
 26 38  1  0
M  END
$$$$
[H]c1nc(N2C([H])([H])C([H])([H])c3nc(N4C([H])([H])C([H])([H])OC([H])([H])C4([H])[H])nc(N([H])c4nc([H])c(C(F)(F)F)c([H])c4[H])c3C([H])([H])C2([H])[H])c(C(F)(F)F)c([H])c1[H]
     RDKit          3D

 61 65  0  0  0  0  0  0  0  0999 V2000
   -6.3306    5.2390   -1.6155 F   0  0  0  0  0  0  0  0  0  0  0  0
   -5.5922    5.3013   -0.4559 C   0  0  0  0  0  0  0  0  0  0  0  0
   -5.0386    6.5694   -0.3901 F   0  0  0  0  0  0  0  0  0  0  0  0
   -6.3926    5.1814    0.6732 F   0  0  0  0  0  0  0  0  0  0  0  0
   -4.4627    4.3255   -0.4453 C   0  0  0  0  0  0  0  0  0  0  0  0
   -4.6172    2.9832   -0.2043 C   0  0  0  0  0  0  0  0  0  0  0  0
   -3.5115    2.1477   -0.2169 C   0  0  0  0  0  0  0  0  0  0  0  0
   -2.2424    2.6216   -0.4631 C   0  0  0  0  0  0  0  0  0  0  0  0
   -1.0682    1.8380   -0.4549 N   0  0  0  0  0  0  0  0  0  0  0  0
   -0.8977    0.4775   -0.2418 C   0  0  0  0  0  0  0  0  0  0  0  0
   -1.8754   -0.4460   -0.2022 N   0  0  0  0  0  0  0  0  0  0  0  0
   -1.6515   -1.7560   -0.1139 C   0  0  0  0  0  0  0  0  0  0  0  0
   -0.3915   -2.2263   -0.0581 N   0  0  0  0  0  0  0  0  0  0  0  0
    0.6851   -1.3805   -0.0870 C   0  0  0  0  0  0  0  0  0  0  0  0
    1.9131   -2.1693   -0.0310 C   0  0  0  0  0  0  0  0  0  0  0  0
    3.1427   -1.4284   -0.6043 C   0  0  0  0  0  0  0  0  0  0  0  0
    3.4903   -0.3097    0.1833 N   0  0  0  0  0  0  0  0  0  0  0  0
    2.5657    0.6023    0.8256 C   0  0  0  0  0  0  0  0  0  0  0  0
    1.4162    1.0316   -0.0993 C   0  0  0  0  0  0  0  0  0  0  0  0
    0.3954   -0.0500   -0.1752 C   0  0  0  0  0  0  0  0  0  0  0  0
    4.8417    0.0363    0.4815 C   0  0  0  0  0  0  0  0  0  0  0  0
    5.2120    0.0400    1.8120 N   0  0  0  0  0  0  0  0  0  0  0  0
    6.4128    0.3967    2.2422 C   0  0  0  0  0  0  0  0  0  0  0  0
    7.3432    0.7861    1.3069 C   0  0  0  0  0  0  0  0  0  0  0  0
    7.0057    0.7912   -0.0268 C   0  0  0  0  0  0  0  0  0  0  0  0
    5.7350    0.4120   -0.4787 C   0  0  0  0  0  0  0  0  0  0  0  0
    5.4486    0.4276   -1.9451 C   0  0  0  0  0  0  0  0  0  0  0  0
    4.3843    1.2028   -2.2876 F   0  0  0  0  0  0  0  0  0  0  0  0
    6.5521    1.1123   -2.5563 F   0  0  0  0  0  0  0  0  0  0  0  0
    5.5061   -0.8152   -2.5293 F   0  0  0  0  0  0  0  0  0  0  0  0
   -2.7262   -2.6763   -0.0392 N   0  0  0  0  0  0  0  0  0  0  0  0
   -3.0841   -3.4997   -1.1783 C   0  0  0  0  0  0  0  0  0  0  0  0
   -4.3987   -4.1730   -0.8492 C   0  0  0  0  0  0  0  0  0  0  0  0
   -4.3563   -4.9482    0.2923 O   0  0  0  0  0  0  0  0  0  0  0  0
   -3.6233   -4.3815    1.3259 C   0  0  0  0  0  0  0  0  0  0  0  0
   -3.5158   -2.8730    1.1546 C   0  0  0  0  0  0  0  0  0  0  0  0
   -2.1388    3.9380   -0.6918 N   0  0  0  0  0  0  0  0  0  0  0  0
   -3.1706    4.7504   -0.6878 C   0  0  0  0  0  0  0  0  0  0  0  0
   -5.6143    2.6038   -0.0040 H   0  0  0  0  0  0  0  0  0  0  0  0
   -3.7111    1.1053   -0.0176 H   0  0  0  0  0  0  0  0  0  0  0  0
   -0.1888    2.3998   -0.6986 H   0  0  0  0  0  0  0  0  0  0  0  0
    2.1397   -2.4784    0.9853 H   0  0  0  0  0  0  0  0  0  0  0  0
    1.7691   -3.0186   -0.7389 H   0  0  0  0  0  0  0  0  0  0  0  0
    3.9312   -2.2298   -0.6074 H   0  0  0  0  0  0  0  0  0  0  0  0
    2.8194   -1.1911   -1.6522 H   0  0  0  0  0  0  0  0  0  0  0  0
    3.0802    1.5350    1.1589 H   0  0  0  0  0  0  0  0  0  0  0  0
    2.1644    0.0725    1.7457 H   0  0  0  0  0  0  0  0  0  0  0  0
    1.8064    1.3591   -1.0577 H   0  0  0  0  0  0  0  0  0  0  0  0
    0.9464    1.8494    0.5274 H   0  0  0  0  0  0  0  0  0  0  0  0
    6.6796    0.3899    3.3153 H   0  0  0  0  0  0  0  0  0  0  0  0
    8.3293    1.0894    1.6630 H   0  0  0  0  0  0  0  0  0  0  0  0
    7.7423    1.0920   -0.7869 H   0  0  0  0  0  0  0  0  0  0  0  0
   -2.2994   -4.1772   -1.5059 H   0  0  0  0  0  0  0  0  0  0  0  0
   -3.3020   -2.7799   -1.9934 H   0  0  0  0  0  0  0  0  0  0  0  0
   -4.6470   -4.8416   -1.7091 H   0  0  0  0  0  0  0  0  0  0  0  0
   -5.1530   -3.3653   -0.7840 H   0  0  0  0  0  0  0  0  0  0  0  0
   -4.1528   -4.5898    2.2728 H   0  0  0  0  0  0  0  0  0  0  0  0
   -2.6046   -4.7847    1.3980 H   0  0  0  0  0  0  0  0  0  0  0  0
   -4.5476   -2.5082    0.9337 H   0  0  0  0  0  0  0  0  0  0  0  0
   -3.1073   -2.4496    2.0673 H   0  0  0  0  0  0  0  0  0  0  0  0
   -3.0444    5.8392   -0.8818 H   0  0  0  0  0  0  0  0  0  0  0  0
  1  2  1  0
  2  3  1  0
  2  4  1  0
  2  5  1  0
  5  6  2  0
  6  7  1  0
  7  8  2  0
  8  9  1  0
  9 10  1  0
 10 11  2  0
 11 12  1  0
 12 13  2  0
 13 14  1  0
 14 15  1  0
 15 16  1  0
 16 17  1  0
 17 18  1  0
 18 19  1  0
 19 20  1  0
 17 21  1  0
 21 22  2  0
 22 23  1  0
 23 24  2  0
 24 25  1  0
 25 26  2  0
 26 27  1  0
 27 28  1  0
 27 29  1  0
 27 30  1  0
 12 31  1  0
 31 32  1  0
 32 33  1  0
 33 34  1  0
 34 35  1  0
 35 36  1  0
  8 37  1  0
 37 38  2  0
 38  5  1  0
 20 10  1  0
 26 21  1  0
 36 31  1  0
 20 14  2  0
  6 39  1  0
  7 40  1  0
  9 41  1  0
 15 42  1  0
 15 43  1  0
 16 44  1  0
 16 45  1  0
 18 46  1  0
 18 47  1  0
 19 48  1  0
 19 49  1  0
 23 50  1  0
 24 51  1  0
 25 52  1  0
 32 53  1  0
 32 54  1  0
 33 55  1  0
 33 56  1  0
 35 57  1  0
 35 58  1  0
 36 59  1  0
 36 60  1  0
 38 61  1  0
M  END
$$$$
[H]c1nc(N2C([H])([H])C([H])([H])c3nc(-c4c([H])c([H])c([H])c([H])c4[H])nc(N([H])c4c([H])c([H])c(C(F)(F)F)c([H])c4[H])c3C([H])([H])C2([H])[H])c(C(F)(F)F)c([H])c1[H]
     RDKit          3D

 59 63  0  0  0  0  0  0  0  0999 V2000
    7.7633   -1.6054    1.3399 F   0  0  0  0  0  0  0  0  0  0  0  0
    7.0036   -2.5499    0.7090 C   0  0  0  0  0  0  0  0  0  0  0  0
    7.6090   -3.1369   -0.3782 F   0  0  0  0  0  0  0  0  0  0  0  0
    6.8316   -3.5879    1.6513 F   0  0  0  0  0  0  0  0  0  0  0  0
    5.6342   -2.0423    0.3239 C   0  0  0  0  0  0  0  0  0  0  0  0
    4.8690   -1.3563    1.2264 C   0  0  0  0  0  0  0  0  0  0  0  0
    3.5719   -0.9380    0.9048 C   0  0  0  0  0  0  0  0  0  0  0  0
    3.0189   -1.2050   -0.3369 C   0  0  0  0  0  0  0  0  0  0  0  0
    1.6630   -0.8837   -0.5846 N   0  0  0  0  0  0  0  0  0  0  0  0
    1.0019    0.3231   -0.4548 C   0  0  0  0  0  0  0  0  0  0  0  0
    1.5867    1.4912   -0.0608 N   0  0  0  0  0  0  0  0  0  0  0  0
    0.8981    2.6107    0.1798 C   0  0  0  0  0  0  0  0  0  0  0  0
   -0.4517    2.5563    0.0288 N   0  0  0  0  0  0  0  0  0  0  0  0
   -1.1108    1.4280   -0.3653 C   0  0  0  0  0  0  0  0  0  0  0  0
   -2.5607    1.5678   -0.3062 C   0  0  0  0  0  0  0  0  0  0  0  0
   -3.3820    0.4112   -0.6855 C   0  0  0  0  0  0  0  0  0  0  0  0
   -3.1060   -0.9300   -0.3508 N   0  0  0  0  0  0  0  0  0  0  0  0
   -1.8153   -1.7097   -0.4560 C   0  0  0  0  0  0  0  0  0  0  0  0
   -0.8991   -0.9315   -1.2958 C   0  0  0  0  0  0  0  0  0  0  0  0
   -0.3691    0.3070   -0.6186 C   0  0  0  0  0  0  0  0  0  0  0  0
   -4.0539   -1.8533    0.1710 C   0  0  0  0  0  0  0  0  0  0  0  0
   -3.6959   -2.4284    1.3865 N   0  0  0  0  0  0  0  0  0  0  0  0
   -4.4440   -3.3782    1.9639 C   0  0  0  0  0  0  0  0  0  0  0  0
   -5.6062   -3.8062    1.3539 C   0  0  0  0  0  0  0  0  0  0  0  0
   -5.9746   -3.2488    0.1616 C   0  0  0  0  0  0  0  0  0  0  0  0
   -5.1850   -2.2483   -0.4511 C   0  0  0  0  0  0  0  0  0  0  0  0
   -5.6741   -1.7135   -1.7225 C   0  0  0  0  0  0  0  0  0  0  0  0
   -4.7797   -1.8174   -2.7771 F   0  0  0  0  0  0  0  0  0  0  0  0
   -6.3223   -0.5194   -1.6828 F   0  0  0  0  0  0  0  0  0  0  0  0
   -6.7067   -2.6116   -2.1741 F   0  0  0  0  0  0  0  0  0  0  0  0
    1.5154    3.9052    0.4639 C   0  0  0  0  0  0  0  0  0  0  0  0
    2.8681    4.1293    0.3879 C   0  0  0  0  0  0  0  0  0  0  0  0
    3.4018    5.3983    0.6664 C   0  0  0  0  0  0  0  0  0  0  0  0
    2.5997    6.4571    1.0197 C   0  0  0  0  0  0  0  0  0  0  0  0
    1.2326    6.2442    1.1013 C   0  0  0  0  0  0  0  0  0  0  0  0
    0.7544    4.9986    0.8254 C   0  0  0  0  0  0  0  0  0  0  0  0
    3.8018   -1.8856   -1.2366 C   0  0  0  0  0  0  0  0  0  0  0  0
    5.0837   -2.2984   -0.9111 C   0  0  0  0  0  0  0  0  0  0  0  0
    5.2983   -1.1612    2.2177 H   0  0  0  0  0  0  0  0  0  0  0  0
    2.9810   -0.3964    1.6203 H   0  0  0  0  0  0  0  0  0  0  0  0
    1.1204   -1.7659   -0.8737 H   0  0  0  0  0  0  0  0  0  0  0  0
   -2.8706    2.4381   -0.9476 H   0  0  0  0  0  0  0  0  0  0  0  0
   -2.8466    1.9351    0.7505 H   0  0  0  0  0  0  0  0  0  0  0  0
   -4.4268    0.6487   -0.2440 H   0  0  0  0  0  0  0  0  0  0  0  0
   -3.5093    0.4661   -1.8129 H   0  0  0  0  0  0  0  0  0  0  0  0
   -2.0224   -2.6895   -0.9566 H   0  0  0  0  0  0  0  0  0  0  0  0
   -1.4507   -1.9515    0.5656 H   0  0  0  0  0  0  0  0  0  0  0  0
   -0.1742   -1.4359   -1.8779 H   0  0  0  0  0  0  0  0  0  0  0  0
   -1.6110   -0.5213   -2.1545 H   0  0  0  0  0  0  0  0  0  0  0  0
   -4.2001   -3.8488    2.9002 H   0  0  0  0  0  0  0  0  0  0  0  0
   -6.2082   -4.5864    1.8383 H   0  0  0  0  0  0  0  0  0  0  0  0
   -6.8816   -3.5931   -0.3391 H   0  0  0  0  0  0  0  0  0  0  0  0
    3.5566    3.3692    0.1044 H   0  0  0  0  0  0  0  0  0  0  0  0
    4.4673    5.5138    0.5728 H   0  0  0  0  0  0  0  0  0  0  0  0
    3.0009    7.4431    1.2334 H   0  0  0  0  0  0  0  0  0  0  0  0
    0.5368    7.0487    1.3860 H   0  0  0  0  0  0  0  0  0  0  0  0
   -0.3167    4.8371    0.8856 H   0  0  0  0  0  0  0  0  0  0  0  0
    3.3360   -2.0674   -2.2146 H   0  0  0  0  0  0  0  0  0  0  0  0
    5.6490   -2.8249   -1.6705 H   0  0  0  0  0  0  0  0  0  0  0  0
  1  2  1  0
  2  3  1  0
  2  4  1  0
  2  5  1  0
  5  6  2  0
  6  7  1  0
  7  8  2  0
  8  9  1  0
  9 10  1  0
 10 11  2  0
 11 12  1  0
 12 13  2  0
 13 14  1  0
 14 15  1  0
 15 16  1  0
 16 17  1  0
 17 18  1  0
 18 19  1  0
 19 20  1  0
 17 21  1  0
 21 22  2  0
 22 23  1  0
 23 24  2  0
 24 25  1  0
 25 26  2  0
 26 27  1  0
 27 28  1  0
 27 29  1  0
 27 30  1  0
 12 31  1  0
 31 32  2  0
 32 33  1  0
 33 34  2  0
 34 35  1  0
 35 36  2  0
  8 37  1  0
 37 38  2  0
 38  5  1  0
 20 10  1  0
 26 21  1  0
 36 31  1  0
 20 14  2  0
  6 39  1  0
  7 40  1  0
  9 41  1  0
 15 42  1  0
 15 43  1  0
 16 44  1  0
 16 45  1  0
 18 46  1  0
 18 47  1  0
 19 48  1  0
 19 49  1  0
 23 50  1  0
 24 51  1  0
 25 52  1  0
 32 53  1  0
 33 54  1  0
 34 55  1  0
 35 56  1  0
 36 57  1  0
 37 58  1  0
 38 59  1  0
M  END
$$$$
[H]c1nc(N([H])c2c([H])c([H])c(C(F)(F)F)c([H])c2[H])c2nc(N([H])c3c(Cl)c([H])c([H])c([H])c3Cl)sc2n1
     RDKit          3D

 39 42  0  0  0  0  0  0  0  0999 V2000
    8.0779    0.8534    0.9096 F   0  0  0  0  0  0  0  0  0  0  0  0
    7.4375    0.4709   -0.2384 C   0  0  0  0  0  0  0  0  0  0  0  0
    7.9426   -0.7601   -0.6201 F   0  0  0  0  0  0  0  0  0  0  0  0
    7.6750    1.3811   -1.2716 F   0  0  0  0  0  0  0  0  0  0  0  0
    5.9669    0.3454   -0.0650 C   0  0  0  0  0  0  0  0  0  0  0  0
    5.2903   -0.8124   -0.3550 C   0  0  0  0  0  0  0  0  0  0  0  0
    3.8931   -0.8867   -0.2392 C   0  0  0  0  0  0  0  0  0  0  0  0
    3.1410    0.1859    0.1678 C   0  0  0  0  0  0  0  0  0  0  0  0
    1.7272    0.1647    0.2668 N   0  0  0  0  0  0  0  0  0  0  0  0
    0.9005   -0.9484    0.4861 C   0  0  0  0  0  0  0  0  0  0  0  0
    1.3961   -2.1529    0.7873 N   0  0  0  0  0  0  0  0  0  0  0  0
    0.6852   -3.2479    1.0393 C   0  0  0  0  0  0  0  0  0  0  0  0
   -0.6654   -3.1287    0.9849 N   0  0  0  0  0  0  0  0  0  0  0  0
   -1.2402   -1.9292    0.6829 C   0  0  0  0  0  0  0  0  0  0  0  0
   -2.8410   -1.3420    0.4789 S   0  0  0  0  0  0  0  0  0  0  0  0
   -2.4758    0.2791    0.0851 C   0  0  0  0  0  0  0  0  0  0  0  0
   -3.3761    1.3660   -0.2402 N   0  0  0  0  0  0  0  0  0  0  0  0
   -4.7587    1.0604   -0.3443 C   0  0  0  0  0  0  0  0  0  0  0  0
   -5.2861    0.8317   -1.6248 C   0  0  0  0  0  0  0  0  0  0  0  0
   -4.2566    0.9764   -3.0503 Cl  0  0  0  0  0  0  0  0  0  0  0  0
   -6.6107    0.4997   -1.7246 C   0  0  0  0  0  0  0  0  0  0  0  0
   -7.4205    0.3881   -0.6026 C   0  0  0  0  0  0  0  0  0  0  0  0
   -6.8550    0.6218    0.6215 C   0  0  0  0  0  0  0  0  0  0  0  0
   -5.5228    0.9619    0.7922 C   0  0  0  0  0  0  0  0  0  0  0  0
   -4.8773    1.2512    2.4081 Cl  0  0  0  0  0  0  0  0  0  0  0  0
   -1.1585    0.2803    0.1321 N   0  0  0  0  0  0  0  0  0  0  0  0
   -0.5032   -0.8012    0.4254 C   0  0  0  0  0  0  0  0  0  0  0  0
    3.8380    1.3624    0.4656 C   0  0  0  0  0  0  0  0  0  0  0  0
    5.2049    1.4400    0.3530 C   0  0  0  0  0  0  0  0  0  0  0  0
    5.8172   -1.6807   -0.6801 H   0  0  0  0  0  0  0  0  0  0  0  0
    3.4057   -1.8284   -0.4989 H   0  0  0  0  0  0  0  0  0  0  0  0
    1.2632    1.1238    0.1673 H   0  0  0  0  0  0  0  0  0  0  0  0
    1.1798   -4.1642    1.2757 H   0  0  0  0  0  0  0  0  0  0  0  0
   -3.0374    2.3188   -0.3943 H   0  0  0  0  0  0  0  0  0  0  0  0
   -7.0125    0.3141   -2.7099 H   0  0  0  0  0  0  0  0  0  0  0  0
   -8.4615    0.1138   -0.7618 H   0  0  0  0  0  0  0  0  0  0  0  0
   -7.4878    0.5350    1.4948 H   0  0  0  0  0  0  0  0  0  0  0  0
    3.2498    2.1965    0.7877 H   0  0  0  0  0  0  0  0  0  0  0  0
    5.7552    2.3603    0.5830 H   0  0  0  0  0  0  0  0  0  0  0  0
  1  2  1  0
  2  3  1  0
  2  4  1  0
  2  5  1  0
  5  6  2  0
  6  7  1  0
  7  8  2  0
  8  9  1  0
  9 10  1  0
 10 11  2  0
 11 12  1  0
 12 13  2  0
 13 14  1  0
 14 15  1  0
 15 16  1  0
 16 17  1  0
 17 18  1  0
 18 19  2  0
 19 20  1  0
 19 21  1  0
 21 22  2  0
 22 23  1  0
 23 24  2  0
 24 25  1  0
 16 26  2  0
 26 27  1  0
  8 28  1  0
 28 29  2  0
 29  5  1  0
 27 10  1  0
 27 14  2  0
 24 18  1  0
  6 30  1  0
  7 31  1  0
  9 32  1  0
 12 33  1  0
 17 34  1  0
 21 35  1  0
 22 36  1  0
 23 37  1  0
 28 38  1  0
 29 39  1  0
M  END
$$$$
[H]c1nc(-c2c([H])c([H])c(C(=O)N([H])c3c([H])c([H])c(C(C([H])([H])[H])(C([H])([H])[H])C([H])([H])[H])c([H])c3[H])c([H])c2[H])c(C(F)(F)F)c([H])c1[H]
     RDKit          3D

 50 52  0  0  0  0  0  0  0  0999 V2000
   -6.9892    0.8654    0.8026 C   0  0  0  0  0  0  0  0  0  0  0  0
   -6.3326   -0.1496   -0.0761 C   0  0  0  0  0  0  0  0  0  0  0  0
   -6.7731   -0.0003   -1.5365 C   0  0  0  0  0  0  0  0  0  0  0  0
   -6.8276   -1.5328    0.3435 C   0  0  0  0  0  0  0  0  0  0  0  0
   -4.8560   -0.0894   -0.0837 C   0  0  0  0  0  0  0  0  0  0  0  0
   -4.1018   -1.1316    0.3877 C   0  0  0  0  0  0  0  0  0  0  0  0
   -2.7008   -1.0480    0.3636 C   0  0  0  0  0  0  0  0  0  0  0  0
   -2.0608    0.0516   -0.1205 C   0  0  0  0  0  0  0  0  0  0  0  0
   -0.6737    0.1900   -0.1425 N   0  0  0  0  0  0  0  0  0  0  0  0
    0.2590   -0.5037    0.6607 C   0  0  0  0  0  0  0  0  0  0  0  0
   -0.0884   -1.3502    1.5220 O   0  0  0  0  0  0  0  0  0  0  0  0
    1.7003   -0.2187    0.4777 C   0  0  0  0  0  0  0  0  0  0  0  0
    2.6004   -0.3229    1.5196 C   0  0  0  0  0  0  0  0  0  0  0  0
    3.9469   -0.0687    1.4022 C   0  0  0  0  0  0  0  0  0  0  0  0
    4.4335    0.3171    0.1548 C   0  0  0  0  0  0  0  0  0  0  0  0
    3.5761    0.4325   -0.9006 C   0  0  0  0  0  0  0  0  0  0  0  0
    2.2060    0.1653   -0.7465 C   0  0  0  0  0  0  0  0  0  0  0  0
    5.8312    0.6687    0.0384 C   0  0  0  0  0  0  0  0  0  0  0  0
    6.2989    1.7980    0.6549 N   0  0  0  0  0  0  0  0  0  0  0  0
    7.5873    2.1616    0.6492 C   0  0  0  0  0  0  0  0  0  0  0  0
    8.5333    1.3919    0.0013 C   0  0  0  0  0  0  0  0  0  0  0  0
    8.0735    0.2575   -0.6195 C   0  0  0  0  0  0  0  0  0  0  0  0
    6.7256   -0.1369   -0.6208 C   0  0  0  0  0  0  0  0  0  0  0  0
    6.4246   -1.3999   -1.2999 C   0  0  0  0  0  0  0  0  0  0  0  0
    5.5916   -1.3707   -2.3599 F   0  0  0  0  0  0  0  0  0  0  0  0
    7.6027   -1.9994   -1.6914 F   0  0  0  0  0  0  0  0  0  0  0  0
    5.8402   -2.2483   -0.3239 F   0  0  0  0  0  0  0  0  0  0  0  0
   -2.8489    1.0927   -0.5930 C   0  0  0  0  0  0  0  0  0  0  0  0
   -4.2289    1.0149   -0.5707 C   0  0  0  0  0  0  0  0  0  0  0  0
   -8.0237    0.5233    1.0495 H   0  0  0  0  0  0  0  0  0  0  0  0
   -6.4185    0.9394    1.7377 H   0  0  0  0  0  0  0  0  0  0  0  0
   -7.1235    1.8611    0.2912 H   0  0  0  0  0  0  0  0  0  0  0  0
   -6.2077    0.7989   -2.0539 H   0  0  0  0  0  0  0  0  0  0  0  0
   -7.8606    0.1604   -1.5595 H   0  0  0  0  0  0  0  0  0  0  0  0
   -6.4548   -0.9518   -2.0437 H   0  0  0  0  0  0  0  0  0  0  0  0
   -7.9421   -1.5204    0.2433 H   0  0  0  0  0  0  0  0  0  0  0  0
   -6.4742   -2.2870   -0.3929 H   0  0  0  0  0  0  0  0  0  0  0  0
   -6.5617   -1.7719    1.3746 H   0  0  0  0  0  0  0  0  0  0  0  0
   -4.5962   -2.0125    0.7748 H   0  0  0  0  0  0  0  0  0  0  0  0
   -2.2133   -1.9287    0.7484 H   0  0  0  0  0  0  0  0  0  0  0  0
   -0.2942    0.8992   -0.8519 H   0  0  0  0  0  0  0  0  0  0  0  0
    2.2078   -0.6236    2.4773 H   0  0  0  0  0  0  0  0  0  0  0  0
    4.6262   -0.1527    2.2117 H   0  0  0  0  0  0  0  0  0  0  0  0
    3.8770    0.7551   -1.8940 H   0  0  0  0  0  0  0  0  0  0  0  0
    1.5629    0.2628   -1.5893 H   0  0  0  0  0  0  0  0  0  0  0  0
    7.9457    3.0624    1.1428 H   0  0  0  0  0  0  0  0  0  0  0  0
    9.5946    1.6514   -0.0305 H   0  0  0  0  0  0  0  0  0  0  0  0
    8.8228   -0.3420   -1.1278 H   0  0  0  0  0  0  0  0  0  0  0  0
   -2.4080    1.9939   -0.9906 H   0  0  0  0  0  0  0  0  0  0  0  0
   -4.8078    1.8465   -0.9462 H   0  0  0  0  0  0  0  0  0  0  0  0
  1  2  1  0
  2  3  1  0
  2  4  1  0
  2  5  1  0
  5  6  2  0
  6  7  1  0
  7  8  2  0
  8  9  1  0
  9 10  1  0
 10 11  2  0
 10 12  1  0
 12 13  2  0
 13 14  1  0
 14 15  2  0
 15 16  1  0
 16 17  2  0
 15 18  1  0
 18 19  2  0
 19 20  1  0
 20 21  2  0
 21 22  1  0
 22 23  2  0
 23 24  1  0
 24 25  1  0
 24 26  1  0
 24 27  1  0
  8 28  1  0
 28 29  2  0
 29  5  1  0
 17 12  1  0
 23 18  1  0
  1 30  1  0
  1 31  1  0
  1 32  1  0
  3 33  1  0
  3 34  1  0
  3 35  1  0
  4 36  1  0
  4 37  1  0
  4 38  1  0
  6 39  1  0
  7 40  1  0
  9 41  1  0
 13 42  1  0
 14 43  1  0
 16 44  1  0
 17 45  1  0
 20 46  1  0
 21 47  1  0
 22 48  1  0
 28 49  1  0
 29 50  1  0
M  END
$$$$
[H]c1nc([H])c(-c2nc(N([H])c3c([H])c([H])c(C(F)(F)F)c([H])c3[H])c3c(n2)C([H])([H])C([H])([H])N(c2nc([H])c([H])c([H])c2C(F)(F)F)C([H])([H])C3([H])[H])c([H])c1[H]
     RDKit          3D

 58 62  0  0  0  0  0  0  0  0999 V2000
    6.8206    4.0833    1.1735 F   0  0  0  0  0  0  0  0  0  0  0  0
    6.8212    3.2523    0.0650 C   0  0  0  0  0  0  0  0  0  0  0  0
    7.7646    2.2610    0.1767 F   0  0  0  0  0  0  0  0  0  0  0  0
    7.0505    4.0329   -1.0640 F   0  0  0  0  0  0  0  0  0  0  0  0
    5.4871    2.6575   -0.0779 C   0  0  0  0  0  0  0  0  0  0  0  0
    4.4222    3.5507   -0.1719 C   0  0  0  0  0  0  0  0  0  0  0  0
    3.1654    3.0367   -0.3150 C   0  0  0  0  0  0  0  0  0  0  0  0
    2.8593    1.6769   -0.3757 C   0  0  0  0  0  0  0  0  0  0  0  0
    1.5133    1.2514   -0.5414 N   0  0  0  0  0  0  0  0  0  0  0  0
    0.9641   -0.0196   -0.4613 C   0  0  0  0  0  0  0  0  0  0  0  0
    1.6955   -1.1013   -0.1771 N   0  0  0  0  0  0  0  0  0  0  0  0
    1.2497   -2.3489   -0.0886 C   0  0  0  0  0  0  0  0  0  0  0  0
   -0.0809   -2.5689   -0.3060 N   0  0  0  0  0  0  0  0  0  0  0  0
   -0.8912   -1.5475   -0.5982 C   0  0  0  0  0  0  0  0  0  0  0  0
   -2.2820   -1.9749   -0.8553 C   0  0  0  0  0  0  0  0  0  0  0  0
   -3.2112   -1.3061    0.1253 C   0  0  0  0  0  0  0  0  0  0  0  0
   -3.2562    0.1115   -0.0134 N   0  0  0  0  0  0  0  0  0  0  0  0
   -2.1512    1.0481    0.2515 C   0  0  0  0  0  0  0  0  0  0  0  0
   -1.2171    0.9259   -0.9529 C   0  0  0  0  0  0  0  0  0  0  0  0
   -0.3779   -0.2521   -0.6792 C   0  0  0  0  0  0  0  0  0  0  0  0
   -4.3987    0.8171   -0.4546 C   0  0  0  0  0  0  0  0  0  0  0  0
   -4.4575    1.2372   -1.7702 N   0  0  0  0  0  0  0  0  0  0  0  0
   -5.4819    1.9061   -2.2774 C   0  0  0  0  0  0  0  0  0  0  0  0
   -6.5619    2.2208   -1.4961 C   0  0  0  0  0  0  0  0  0  0  0  0
   -6.5721    1.8357   -0.1851 C   0  0  0  0  0  0  0  0  0  0  0  0
   -5.4716    1.1247    0.3304 C   0  0  0  0  0  0  0  0  0  0  0  0
   -5.5275    0.7609    1.7510 C   0  0  0  0  0  0  0  0  0  0  0  0
   -5.5009   -0.5654    2.0446 F   0  0  0  0  0  0  0  0  0  0  0  0
   -6.7194    1.2476    2.3287 F   0  0  0  0  0  0  0  0  0  0  0  0
   -4.5318    1.4574    2.4732 F   0  0  0  0  0  0  0  0  0  0  0  0
    2.1098   -3.4801    0.2202 C   0  0  0  0  0  0  0  0  0  0  0  0
    3.4647   -3.3866    0.4233 C   0  0  0  0  0  0  0  0  0  0  0  0
    4.2528   -4.4903    0.7118 C   0  0  0  0  0  0  0  0  0  0  0  0
    3.6319   -5.7078    0.7936 C   0  0  0  0  0  0  0  0  0  0  0  0
    2.3154   -5.8412    0.6042 N   0  0  0  0  0  0  0  0  0  0  0  0
    1.5501   -4.7495    0.3196 C   0  0  0  0  0  0  0  0  0  0  0  0
    3.9330    0.8392   -0.2802 C   0  0  0  0  0  0  0  0  0  0  0  0
    5.2490    1.3090   -0.1317 C   0  0  0  0  0  0  0  0  0  0  0  0
    4.6106    4.6345   -0.1246 H   0  0  0  0  0  0  0  0  0  0  0  0
    2.3527    3.7273   -0.3903 H   0  0  0  0  0  0  0  0  0  0  0  0
    0.8143    2.0472   -0.7577 H   0  0  0  0  0  0  0  0  0  0  0  0
   -2.4007   -3.0731   -0.7835 H   0  0  0  0  0  0  0  0  0  0  0  0
   -2.5320   -1.6039   -1.8814 H   0  0  0  0  0  0  0  0  0  0  0  0
   -2.9186   -1.5718    1.1537 H   0  0  0  0  0  0  0  0  0  0  0  0
   -4.2169   -1.7476   -0.0972 H   0  0  0  0  0  0  0  0  0  0  0  0
   -1.6374    0.6630    1.1592 H   0  0  0  0  0  0  0  0  0  0  0  0
   -2.5042    2.0849    0.3779 H   0  0  0  0  0  0  0  0  0  0  0  0
   -1.9006    0.5954   -1.8188 H   0  0  0  0  0  0  0  0  0  0  0  0
   -0.7983    1.8381   -1.2837 H   0  0  0  0  0  0  0  0  0  0  0  0
   -5.5003    2.2249   -3.3082 H   0  0  0  0  0  0  0  0  0  0  0  0
   -7.4154    2.7652   -1.8840 H   0  0  0  0  0  0  0  0  0  0  0  0
   -7.4203    2.0677    0.4640 H   0  0  0  0  0  0  0  0  0  0  0  0
    3.9345   -2.4159    0.3563 H   0  0  0  0  0  0  0  0  0  0  0  0
    5.3151   -4.4501    0.8666 H   0  0  0  0  0  0  0  0  0  0  0  0
    4.1760   -6.6242    1.0188 H   0  0  0  0  0  0  0  0  0  0  0  0
    0.4978   -4.8666    0.1707 H   0  0  0  0  0  0  0  0  0  0  0  0
    3.8417   -0.2165   -0.3306 H   0  0  0  0  0  0  0  0  0  0  0  0
    6.0727    0.6174   -0.0681 H   0  0  0  0  0  0  0  0  0  0  0  0
  1  2  1  0
  2  3  1  0
  2  4  1  0
  2  5  1  0
  5  6  2  0
  6  7  1  0
  7  8  2  0
  8  9  1  0
  9 10  1  0
 10 11  2  0
 11 12  1  0
 12 13  2  0
 13 14  1  0
 14 15  1  0
 15 16  1  0
 16 17  1  0
 17 18  1  0
 18 19  1  0
 19 20  1  0
 17 21  1  0
 21 22  2  0
 22 23  1  0
 23 24  2  0
 24 25  1  0
 25 26  2  0
 26 27  1  0
 27 28  1  0
 27 29  1  0
 27 30  1  0
 12 31  1  0
 31 32  2  0
 32 33  1  0
 33 34  2  0
 34 35  1  0
 35 36  2  0
  8 37  1  0
 37 38  2  0
 38  5  1  0
 20 10  1  0
 26 21  1  0
 36 31  1  0
 20 14  2  0
  6 39  1  0
  7 40  1  0
  9 41  1  0
 15 42  1  0
 15 43  1  0
 16 44  1  0
 16 45  1  0
 18 46  1  0
 18 47  1  0
 19 48  1  0
 19 49  1  0
 23 50  1  0
 24 51  1  0
 25 52  1  0
 32 53  1  0
 33 54  1  0
 34 55  1  0
 36 56  1  0
 37 57  1  0
 38 58  1  0
M  END
$$$$
[H]c1c([H])c([H])c(-c2nc3c([H])c([H])c([H])c([H])c3c(C(=O)N3C([H])([H])C([H])([H])N(C(=O)N([H])c4c([H])c([H])c(C(F)(F)F)c([H])c4[H])C([H])([H])C3([H])[H])c2[H])c([H])c1[H]
     RDKit          3D

 60 64  0  0  0  0  0  0  0  0999 V2000
  -10.3813   -1.1540    1.2584 F   0  0  0  0  0  0  0  0  0  0  0  0
   -9.8171   -0.4545    0.2286 C   0  0  0  0  0  0  0  0  0  0  0  0
   -9.7988   -1.2820   -0.9153 F   0  0  0  0  0  0  0  0  0  0  0  0
  -10.5956    0.6123   -0.1104 F   0  0  0  0  0  0  0  0  0  0  0  0
   -8.3959   -0.0592    0.4892 C   0  0  0  0  0  0  0  0  0  0  0  0
   -7.9697    1.2361    0.5950 C   0  0  0  0  0  0  0  0  0  0  0  0
   -6.6303    1.5561    0.8092 C   0  0  0  0  0  0  0  0  0  0  0  0
   -5.6973    0.5499    0.9166 C   0  0  0  0  0  0  0  0  0  0  0  0
   -4.2790    0.7987    1.0755 N   0  0  0  0  0  0  0  0  0  0  0  0
   -3.5144    0.5167   -0.0796 C   0  0  0  0  0  0  0  0  0  0  0  0
   -4.1762    0.0915   -1.1013 O   0  0  0  0  0  0  0  0  0  0  0  0
   -2.1344    0.6343   -0.2838 N   0  0  0  0  0  0  0  0  0  0  0  0
   -1.6187    0.3664   -1.6608 C   0  0  0  0  0  0  0  0  0  0  0  0
   -0.7304   -0.8222   -1.5233 C   0  0  0  0  0  0  0  0  0  0  0  0
    0.3684   -0.5297   -0.5787 N   0  0  0  0  0  0  0  0  0  0  0  0
    0.0767    0.0346    0.6942 C   0  0  0  0  0  0  0  0  0  0  0  0
   -1.1218    0.9656    0.6796 C   0  0  0  0  0  0  0  0  0  0  0  0
    1.6311   -0.8127   -1.0352 C   0  0  0  0  0  0  0  0  0  0  0  0
    1.7176   -1.2916   -2.2428 O   0  0  0  0  0  0  0  0  0  0  0  0
    2.9363   -0.6827   -0.4138 C   0  0  0  0  0  0  0  0  0  0  0  0
    3.7626    0.3899   -0.6087 C   0  0  0  0  0  0  0  0  0  0  0  0
    5.0728    0.3776   -0.0820 C   0  0  0  0  0  0  0  0  0  0  0  0
    5.4248   -0.7170    0.5901 N   0  0  0  0  0  0  0  0  0  0  0  0
    4.6490   -1.7796    0.8029 C   0  0  0  0  0  0  0  0  0  0  0  0
    5.0815   -2.8900    1.5244 C   0  0  0  0  0  0  0  0  0  0  0  0
    4.2347   -3.9749    1.7222 C   0  0  0  0  0  0  0  0  0  0  0  0
    2.9531   -3.9825    1.2175 C   0  0  0  0  0  0  0  0  0  0  0  0
    2.5210   -2.8757    0.4987 C   0  0  0  0  0  0  0  0  0  0  0  0
    3.3611   -1.8086    0.3055 C   0  0  0  0  0  0  0  0  0  0  0  0
    5.9759    1.4799   -0.3655 C   0  0  0  0  0  0  0  0  0  0  0  0
    5.5761    2.7000   -0.8759 C   0  0  0  0  0  0  0  0  0  0  0  0
    6.4786    3.7069   -1.2096 C   0  0  0  0  0  0  0  0  0  0  0  0
    7.8375    3.4982   -1.0308 C   0  0  0  0  0  0  0  0  0  0  0  0
    8.2547    2.2994   -0.5279 C   0  0  0  0  0  0  0  0  0  0  0  0
    7.3314    1.3055   -0.1999 C   0  0  0  0  0  0  0  0  0  0  0  0
   -6.1324   -0.7609    0.8108 C   0  0  0  0  0  0  0  0  0  0  0  0
   -7.4493   -1.0638    0.6005 C   0  0  0  0  0  0  0  0  0  0  0  0
   -8.7139    2.0379    0.5094 H   0  0  0  0  0  0  0  0  0  0  0  0
   -6.3283    2.5870    0.8899 H   0  0  0  0  0  0  0  0  0  0  0  0
   -3.9410    1.1382    1.9749 H   0  0  0  0  0  0  0  0  0  0  0  0
   -1.1125    1.2877   -1.9437 H   0  0  0  0  0  0  0  0  0  0  0  0
   -2.4879    0.0804   -2.2956 H   0  0  0  0  0  0  0  0  0  0  0  0
   -1.3135   -1.6500   -1.0715 H   0  0  0  0  0  0  0  0  0  0  0  0
   -0.3412   -1.1721   -2.4912 H   0  0  0  0  0  0  0  0  0  0  0  0
   -0.1769   -0.7632    1.4574 H   0  0  0  0  0  0  0  0  0  0  0  0
    0.9236    0.5876    1.1463 H   0  0  0  0  0  0  0  0  0  0  0  0
   -1.5475    1.0956    1.6950 H   0  0  0  0  0  0  0  0  0  0  0  0
   -0.7649    2.0032    0.4027 H   0  0  0  0  0  0  0  0  0  0  0  0
    3.4233    1.2424   -1.1502 H   0  0  0  0  0  0  0  0  0  0  0  0
    6.0854   -2.8781    1.9142 H   0  0  0  0  0  0  0  0  0  0  0  0
    4.6159   -4.8294    2.2957 H   0  0  0  0  0  0  0  0  0  0  0  0
    2.2623   -4.7915    1.3469 H   0  0  0  0  0  0  0  0  0  0  0  0
    1.5119   -2.8625    0.0861 H   0  0  0  0  0  0  0  0  0  0  0  0
    4.5252    2.8815   -1.0119 H   0  0  0  0  0  0  0  0  0  0  0  0
    6.1487    4.6554   -1.6081 H   0  0  0  0  0  0  0  0  0  0  0  0
    8.5397    4.3061   -1.3043 H   0  0  0  0  0  0  0  0  0  0  0  0
    9.3260    2.1331   -0.3890 H   0  0  0  0  0  0  0  0  0  0  0  0
    7.7436    0.3702    0.1885 H   0  0  0  0  0  0  0  0  0  0  0  0
   -5.3869   -1.5306    0.9043 H   0  0  0  0  0  0  0  0  0  0  0  0
   -7.7933   -2.1070    0.5217 H   0  0  0  0  0  0  0  0  0  0  0  0
  1  2  1  0
  2  3  1  0
  2  4  1  0
  2  5  1  0
  5  6  2  0
  6  7  1  0
  7  8  2  0
  8  9  1  0
  9 10  1  0
 10 11  2  0
 10 12  1  0
 12 13  1  0
 13 14  1  0
 14 15  1  0
 15 16  1  0
 16 17  1  0
 15 18  1  0
 18 19  2  0
 18 20  1  0
 20 21  2  0
 21 22  1  0
 22 23  2  0
 23 24  1  0
 24 25  2  0
 25 26  1  0
 26 27  2  0
 27 28  1  0
 28 29  2  0
 22 30  1  0
 30 31  2  0
 31 32  1  0
 32 33  2  0
 33 34  1  0
 34 35  2  0
  8 36  1  0
 36 37  2  0
 37  5  1  0
 17 12  1  0
 29 20  1  0
 35 30  1  0
 29 24  1  0
  6 38  1  0
  7 39  1  0
  9 40  1  0
 13 41  1  0
 13 42  1  0
 14 43  1  0
 14 44  1  0
 16 45  1  0
 16 46  1  0
 17 47  1  0
 17 48  1  0
 21 49  1  0
 25 50  1  0
 26 51  1  0
 27 52  1  0
 28 53  1  0
 31 54  1  0
 32 55  1  0
 33 56  1  0
 34 57  1  0
 35 58  1  0
 36 59  1  0
 37 60  1  0
M  END
$$$$
[H]C1=C(C(=O)N([H])c2c([H])c([H])c(C(C([H])([H])[H])(C([H])([H])[H])C([H])([H])[H])c([H])c2[H])C([H])([H])C([H])([H])N(c2nc([H])c([H])c([H])c2C(F)(F)F)C1([H])[H]
     RDKit          3D

 53 55  0  0  0  0  0  0  0  0999 V2000
   -6.4048    2.1374   -0.2112 C   0  0  0  0  0  0  0  0  0  0  0  0
   -6.2837    0.6126   -0.2029 C   0  0  0  0  0  0  0  0  0  0  0  0
   -7.1504    0.0862    0.9306 C   0  0  0  0  0  0  0  0  0  0  0  0
   -6.6762    0.0596   -1.5498 C   0  0  0  0  0  0  0  0  0  0  0  0
   -4.8773    0.2516    0.0950 C   0  0  0  0  0  0  0  0  0  0  0  0
   -4.6110   -1.0573    0.4974 C   0  0  0  0  0  0  0  0  0  0  0  0
   -3.2846   -1.4245    0.7574 C   0  0  0  0  0  0  0  0  0  0  0  0
   -2.2869   -0.5212    0.6186 C   0  0  0  0  0  0  0  0  0  0  0  0
   -0.9259   -0.8561    0.8690 N   0  0  0  0  0  0  0  0  0  0  0  0
   -0.0050   -0.7139   -0.2188 C   0  0  0  0  0  0  0  0  0  0  0  0
   -0.5644   -0.3235   -1.3302 O   0  0  0  0  0  0  0  0  0  0  0  0
    1.3939   -0.9419   -0.2055 C   0  0  0  0  0  0  0  0  0  0  0  0
    2.1522   -1.2985    0.7846 C   0  0  0  0  0  0  0  0  0  0  0  0
    3.6513   -1.4819    0.5368 C   0  0  0  0  0  0  0  0  0  0  0  0
    4.1355   -0.3644   -0.1907 N   0  0  0  0  0  0  0  0  0  0  0  0
    3.2151    0.2162   -1.2074 C   0  0  0  0  0  0  0  0  0  0  0  0
    2.1506   -0.7818   -1.5206 C   0  0  0  0  0  0  0  0  0  0  0  0
    5.3518    0.2890   -0.0841 C   0  0  0  0  0  0  0  0  0  0  0  0
    5.3878    1.5166    0.5547 N   0  0  0  0  0  0  0  0  0  0  0  0
    6.4967    2.2535    0.6586 C   0  0  0  0  0  0  0  0  0  0  0  0
    7.6785    1.8089    0.1186 C   0  0  0  0  0  0  0  0  0  0  0  0
    7.7028    0.5961   -0.5242 C   0  0  0  0  0  0  0  0  0  0  0  0
    6.5170   -0.1575   -0.6159 C   0  0  0  0  0  0  0  0  0  0  0  0
    6.6212   -1.4591   -1.2853 C   0  0  0  0  0  0  0  0  0  0  0  0
    5.7239   -1.6374   -2.3235 F   0  0  0  0  0  0  0  0  0  0  0  0
    7.9249   -1.5861   -1.8305 F   0  0  0  0  0  0  0  0  0  0  0  0
    6.4818   -2.4701   -0.3770 F   0  0  0  0  0  0  0  0  0  0  0  0
   -2.5751    0.7759    0.2176 C   0  0  0  0  0  0  0  0  0  0  0  0
   -3.8798    1.1732   -0.0475 C   0  0  0  0  0  0  0  0  0  0  0  0
   -7.5092    2.3895   -0.1798 H   0  0  0  0  0  0  0  0  0  0  0  0
   -6.0300    2.5362   -1.1663 H   0  0  0  0  0  0  0  0  0  0  0  0
   -5.8875    2.5354    0.6729 H   0  0  0  0  0  0  0  0  0  0  0  0
   -8.1712    0.5221    0.8858 H   0  0  0  0  0  0  0  0  0  0  0  0
   -7.2571   -0.9931    0.8546 H   0  0  0  0  0  0  0  0  0  0  0  0
   -6.6187    0.3412    1.8934 H   0  0  0  0  0  0  0  0  0  0  0  0
   -5.8155   -0.4639   -2.0423 H   0  0  0  0  0  0  0  0  0  0  0  0
   -7.0713    0.8899   -2.1622 H   0  0  0  0  0  0  0  0  0  0  0  0
   -7.5391   -0.6242   -1.3762 H   0  0  0  0  0  0  0  0  0  0  0  0
   -5.4076   -1.7857    0.6010 H   0  0  0  0  0  0  0  0  0  0  0  0
   -3.1292   -2.4469    1.0585 H   0  0  0  0  0  0  0  0  0  0  0  0
   -0.6304   -1.1906    1.8001 H   0  0  0  0  0  0  0  0  0  0  0  0
    1.7736   -1.4555    1.7365 H   0  0  0  0  0  0  0  0  0  0  0  0
    4.1175   -1.5147    1.5315 H   0  0  0  0  0  0  0  0  0  0  0  0
    3.7307   -2.4665    0.0653 H   0  0  0  0  0  0  0  0  0  0  0  0
    2.7252    1.0478   -0.6421 H   0  0  0  0  0  0  0  0  0  0  0  0
    3.8047    0.5275   -2.0697 H   0  0  0  0  0  0  0  0  0  0  0  0
    2.5965   -1.7757   -1.7566 H   0  0  0  0  0  0  0  0  0  0  0  0
    1.4923   -0.3918   -2.2969 H   0  0  0  0  0  0  0  0  0  0  0  0
    6.5010    3.2269    1.1703 H   0  0  0  0  0  0  0  0  0  0  0  0
    8.5937    2.4265    0.1988 H   0  0  0  0  0  0  0  0  0  0  0  0
    8.6213    0.2445   -0.9436 H   0  0  0  0  0  0  0  0  0  0  0  0
   -1.8194    1.5423    0.0855 H   0  0  0  0  0  0  0  0  0  0  0  0
   -4.1302    2.1773   -0.3621 H   0  0  0  0  0  0  0  0  0  0  0  0
  1  2  1  0
  2  3  1  0
  2  4  1  0
  2  5  1  0
  5  6  2  0
  6  7  1  0
  7  8  2  0
  8  9  1  0
  9 10  1  0
 10 11  2  0
 10 12  1  0
 12 13  2  0
 13 14  1  0
 14 15  1  0
 15 16  1  0
 16 17  1  0
 15 18  1  0
 18 19  2  0
 19 20  1  0
 20 21  2  0
 21 22  1  0
 22 23  2  0
 23 24  1  0
 24 25  1  0
 24 26  1  0
 24 27  1  0
  8 28  1  0
 28 29  2  0
 29  5  1  0
 17 12  1  0
 23 18  1  0
  1 30  1  0
  1 31  1  0
  1 32  1  0
  3 33  1  0
  3 34  1  0
  3 35  1  0
  4 36  1  0
  4 37  1  0
  4 38  1  0
  6 39  1  0
  7 40  1  0
  9 41  1  0
 13 42  1  0
 14 43  1  0
 14 44  1  0
 16 45  1  0
 16 46  1  0
 17 47  1  0
 17 48  1  0
 20 49  1  0
 21 50  1  0
 22 51  1  0
 28 52  1  0
 29 53  1  0
M  END
$$$$
[H]c1nc(N2C([H])([H])C([H])([H])c3nc(N4C([H])([H])C([H])([H])C([H])([H])C([H])([H])C4([H])[H])nc(N([H])c4c([H])nc(C(F)(F)F)c([H])c4[H])c3C([H])([H])C2([H])[H])c(C(F)(F)F)c([H])c1[H]
     RDKit          3D

 63 67  0  0  0  0  0  0  0  0999 V2000
    3.5195    7.6899    1.2258 F   0  0  0  0  0  0  0  0  0  0  0  0
    3.7482    6.8296    0.1653 C   0  0  0  0  0  0  0  0  0  0  0  0
    5.0886    6.5062    0.1507 F   0  0  0  0  0  0  0  0  0  0  0  0
    3.4680    7.5013   -1.0120 F   0  0  0  0  0  0  0  0  0  0  0  0
    2.8962    5.6242    0.3060 C   0  0  0  0  0  0  0  0  0  0  0  0
    3.0091    4.5599   -0.5847 C   0  0  0  0  0  0  0  0  0  0  0  0
    2.1950    3.4498   -0.4808 C   0  0  0  0  0  0  0  0  0  0  0  0
    1.2455    3.3948    0.5271 C   0  0  0  0  0  0  0  0  0  0  0  0
    0.3355    2.3476    0.7049 N   0  0  0  0  0  0  0  0  0  0  0  0
    0.4176    0.9892    0.4405 C   0  0  0  0  0  0  0  0  0  0  0  0
    1.6287    0.4168    0.2479 N   0  0  0  0  0  0  0  0  0  0  0  0
    1.8001   -0.9226    0.1477 C   0  0  0  0  0  0  0  0  0  0  0  0
    0.7701   -1.7587    0.2365 N   0  0  0  0  0  0  0  0  0  0  0  0
   -0.4735   -1.2774    0.4270 C   0  0  0  0  0  0  0  0  0  0  0  0
   -1.4616   -2.3825    0.5733 C   0  0  0  0  0  0  0  0  0  0  0  0
   -2.5539   -2.2278   -0.4371 C   0  0  0  0  0  0  0  0  0  0  0  0
   -3.3853   -1.0503   -0.1712 N   0  0  0  0  0  0  0  0  0  0  0  0
   -3.0352    0.3085   -0.2735 C   0  0  0  0  0  0  0  0  0  0  0  0
   -1.9281    0.8075    0.6354 C   0  0  0  0  0  0  0  0  0  0  0  0
   -0.6572    0.0924    0.5267 C   0  0  0  0  0  0  0  0  0  0  0  0
   -4.7226   -1.3876    0.2206 C   0  0  0  0  0  0  0  0  0  0  0  0
   -4.9544   -1.4785    1.5740 N   0  0  0  0  0  0  0  0  0  0  0  0
   -6.1763   -1.8001    2.0273 C   0  0  0  0  0  0  0  0  0  0  0  0
   -7.1873   -2.0379    1.1342 C   0  0  0  0  0  0  0  0  0  0  0  0
   -6.9723   -1.9552   -0.2155 C   0  0  0  0  0  0  0  0  0  0  0  0
   -5.6968   -1.6149   -0.7116 C   0  0  0  0  0  0  0  0  0  0  0  0
   -5.5000   -1.4937   -2.1576 C   0  0  0  0  0  0  0  0  0  0  0  0
   -4.5978   -2.3066   -2.7460 F   0  0  0  0  0  0  0  0  0  0  0  0
   -5.2813   -0.1585   -2.5453 F   0  0  0  0  0  0  0  0  0  0  0  0
   -6.7358   -1.7744   -2.7853 F   0  0  0  0  0  0  0  0  0  0  0  0
    3.0722   -1.5529    0.0044 N   0  0  0  0  0  0  0  0  0  0  0  0
    4.2789   -0.9572    0.5677 C   0  0  0  0  0  0  0  0  0  0  0  0
    5.3455   -2.0298    0.6302 C   0  0  0  0  0  0  0  0  0  0  0  0
    5.6899   -2.5536   -0.7460 C   0  0  0  0  0  0  0  0  0  0  0  0
    4.4548   -2.8895   -1.5430 C   0  0  0  0  0  0  0  0  0  0  0  0
    3.2244   -2.8149   -0.6808 C   0  0  0  0  0  0  0  0  0  0  0  0
    1.1846    4.4778    1.3787 C   0  0  0  0  0  0  0  0  0  0  0  0
    1.9673    5.5503    1.2812 N   0  0  0  0  0  0  0  0  0  0  0  0
    3.7815    4.6746   -1.3357 H   0  0  0  0  0  0  0  0  0  0  0  0
    2.3120    2.6197   -1.1802 H   0  0  0  0  0  0  0  0  0  0  0  0
   -0.5959    2.6525    1.1657 H   0  0  0  0  0  0  0  0  0  0  0  0
   -0.9517   -3.3557    0.4008 H   0  0  0  0  0  0  0  0  0  0  0  0
   -1.7928   -2.3814    1.6388 H   0  0  0  0  0  0  0  0  0  0  0  0
   -2.0769   -2.1240   -1.4280 H   0  0  0  0  0  0  0  0  0  0  0  0
   -3.1802   -3.1498   -0.4265 H   0  0  0  0  0  0  0  0  0  0  0  0
   -2.7632    0.5448   -1.3233 H   0  0  0  0  0  0  0  0  0  0  0  0
   -3.9237    0.9336    0.0096 H   0  0  0  0  0  0  0  0  0  0  0  0
   -1.7804    1.8693    0.2533 H   0  0  0  0  0  0  0  0  0  0  0  0
   -2.2929    0.8738    1.6471 H   0  0  0  0  0  0  0  0  0  0  0  0
   -6.3448   -1.8645    3.1247 H   0  0  0  0  0  0  0  0  0  0  0  0
   -8.1816   -2.2994    1.5062 H   0  0  0  0  0  0  0  0  0  0  0  0
   -7.7581   -2.1439   -0.9477 H   0  0  0  0  0  0  0  0  0  0  0  0
    4.0117   -0.6916    1.6323 H   0  0  0  0  0  0  0  0  0  0  0  0
    4.5979   -0.0633    0.0519 H   0  0  0  0  0  0  0  0  0  0  0  0
    4.9707   -2.9211    1.2096 H   0  0  0  0  0  0  0  0  0  0  0  0
    6.2814   -1.6534    1.0849 H   0  0  0  0  0  0  0  0  0  0  0  0
    6.2775   -3.4906   -0.6007 H   0  0  0  0  0  0  0  0  0  0  0  0
    6.3465   -1.8269   -1.2752 H   0  0  0  0  0  0  0  0  0  0  0  0
    4.4930   -3.9067   -1.9775 H   0  0  0  0  0  0  0  0  0  0  0  0
    4.3866   -2.1482   -2.3693 H   0  0  0  0  0  0  0  0  0  0  0  0
    3.3855   -3.5916    0.1257 H   0  0  0  0  0  0  0  0  0  0  0  0
    2.3077   -3.1368   -1.1945 H   0  0  0  0  0  0  0  0  0  0  0  0
    0.4702    4.4595    2.1654 H   0  0  0  0  0  0  0  0  0  0  0  0
  1  2  1  0
  2  3  1  0
  2  4  1  0
  2  5  1  0
  5  6  2  0
  6  7  1  0
  7  8  2  0
  8  9  1  0
  9 10  1  0
 10 11  2  0
 11 12  1  0
 12 13  2  0
 13 14  1  0
 14 15  1  0
 15 16  1  0
 16 17  1  0
 17 18  1  0
 18 19  1  0
 19 20  1  0
 17 21  1  0
 21 22  2  0
 22 23  1  0
 23 24  2  0
 24 25  1  0
 25 26  2  0
 26 27  1  0
 27 28  1  0
 27 29  1  0
 27 30  1  0
 12 31  1  0
 31 32  1  0
 32 33  1  0
 33 34  1  0
 34 35  1  0
 35 36  1  0
  8 37  1  0
 37 38  2  0
 38  5  1  0
 20 10  1  0
 26 21  1  0
 36 31  1  0
 20 14  2  0
  6 39  1  0
  7 40  1  0
  9 41  1  0
 15 42  1  0
 15 43  1  0
 16 44  1  0
 16 45  1  0
 18 46  1  0
 18 47  1  0
 19 48  1  0
 19 49  1  0
 23 50  1  0
 24 51  1  0
 25 52  1  0
 32 53  1  0
 32 54  1  0
 33 55  1  0
 33 56  1  0
 34 57  1  0
 34 58  1  0
 35 59  1  0
 35 60  1  0
 36 61  1  0
 36 62  1  0
 37 63  1  0
M  END
$$$$
[H]c1nc(N2C([H])([H])C([H])([H])c3nc(N4C([H])([H])C([H])([H])OC([H])([H])C4([H])[H])nc(N([H])c4c([H])c([H])c(C(F)(F)F)c(Cl)c4[H])c3C([H])([H])C2([H])[H])c(C(F)(F)F)c([H])c1[H]
     RDKit          3D

 62 66  0  0  0  0  0  0  0  0999 V2000
   -6.8409    3.9429    0.2406 F   0  0  0  0  0  0  0  0  0  0  0  0
   -5.9082    4.5814   -0.5220 C   0  0  0  0  0  0  0  0  0  0  0  0
   -6.4252    4.6465   -1.8222 F   0  0  0  0  0  0  0  0  0  0  0  0
   -5.7350    5.8919   -0.0608 F   0  0  0  0  0  0  0  0  0  0  0  0
   -4.6398    3.8296   -0.4973 C   0  0  0  0  0  0  0  0  0  0  0  0
   -4.5483    2.6687    0.2297 C   0  0  0  0  0  0  0  0  0  0  0  0
   -3.3366    1.9605    0.2467 C   0  0  0  0  0  0  0  0  0  0  0  0
   -2.2300    2.3727   -0.4326 C   0  0  0  0  0  0  0  0  0  0  0  0
   -0.9843    1.7111   -0.4889 N   0  0  0  0  0  0  0  0  0  0  0  0
   -0.7311    0.3706   -0.1812 C   0  0  0  0  0  0  0  0  0  0  0  0
   -1.6501   -0.4880    0.2702 N   0  0  0  0  0  0  0  0  0  0  0  0
   -1.4698   -1.7612    0.6155 C   0  0  0  0  0  0  0  0  0  0  0  0
   -0.2128   -2.2260    0.4924 N   0  0  0  0  0  0  0  0  0  0  0  0
    0.7772   -1.4368    0.0465 C   0  0  0  0  0  0  0  0  0  0  0  0
    2.0969   -2.1623    0.0455 C   0  0  0  0  0  0  0  0  0  0  0  0
    3.0777   -1.2435    0.7777 C   0  0  0  0  0  0  0  0  0  0  0  0
    3.4931   -0.2085   -0.1249 N   0  0  0  0  0  0  0  0  0  0  0  0
    2.7926    0.2329   -1.2925 C   0  0  0  0  0  0  0  0  0  0  0  0
    1.5031    0.9029   -0.8636 C   0  0  0  0  0  0  0  0  0  0  0  0
    0.5734   -0.1338   -0.3059 C   0  0  0  0  0  0  0  0  0  0  0  0
    4.7181    0.4626    0.1239 C   0  0  0  0  0  0  0  0  0  0  0  0
    4.7311    1.5768    0.9156 N   0  0  0  0  0  0  0  0  0  0  0  0
    5.8262    2.2431    1.2215 C   0  0  0  0  0  0  0  0  0  0  0  0
    7.0189    1.7931    0.7172 C   0  0  0  0  0  0  0  0  0  0  0  0
    7.0527    0.6818   -0.0803 C   0  0  0  0  0  0  0  0  0  0  0  0
    5.8910   -0.0228   -0.4040 C   0  0  0  0  0  0  0  0  0  0  0  0
    6.0056   -1.1924   -1.2965 C   0  0  0  0  0  0  0  0  0  0  0  0
    7.3669   -1.3306   -1.6276 F   0  0  0  0  0  0  0  0  0  0  0  0
    5.3822   -1.0159   -2.5183 F   0  0  0  0  0  0  0  0  0  0  0  0
    5.6800   -2.3961   -0.7189 F   0  0  0  0  0  0  0  0  0  0  0  0
   -2.5441   -2.5784    1.0855 N   0  0  0  0  0  0  0  0  0  0  0  0
   -3.8554   -2.0087    1.1843 C   0  0  0  0  0  0  0  0  0  0  0  0
   -4.8649   -3.1202    0.9634 C   0  0  0  0  0  0  0  0  0  0  0  0
   -4.5946   -4.1210    1.8720 O   0  0  0  0  0  0  0  0  0  0  0  0
   -3.4588   -4.8248    1.4627 C   0  0  0  0  0  0  0  0  0  0  0  0
   -2.2295   -3.9474    1.4354 C   0  0  0  0  0  0  0  0  0  0  0  0
   -2.3774    3.5703   -1.1626 C   0  0  0  0  0  0  0  0  0  0  0  0
   -3.5283    4.2776   -1.2011 C   0  0  0  0  0  0  0  0  0  0  0  0
   -3.7270    5.7689   -2.1046 Cl  0  0  0  0  0  0  0  0  0  0  0  0
   -5.4117    2.3203    0.7766 H   0  0  0  0  0  0  0  0  0  0  0  0
   -3.3448    1.0777    0.8475 H   0  0  0  0  0  0  0  0  0  0  0  0
   -0.1630    2.3134   -0.7705 H   0  0  0  0  0  0  0  0  0  0  0  0
    2.3860   -2.3090   -0.9973 H   0  0  0  0  0  0  0  0  0  0  0  0
    2.0222   -3.1506    0.5191 H   0  0  0  0  0  0  0  0  0  0  0  0
    3.8402   -1.8079    1.2903 H   0  0  0  0  0  0  0  0  0  0  0  0
    2.4460   -0.7167    1.5820 H   0  0  0  0  0  0  0  0  0  0  0  0
    3.3738    0.9976   -1.8702 H   0  0  0  0  0  0  0  0  0  0  0  0
    2.5479   -0.6090   -2.0022 H   0  0  0  0  0  0  0  0  0  0  0  0
    1.6366    1.6612   -0.0783 H   0  0  0  0  0  0  0  0  0  0  0  0
    1.0143    1.3363   -1.7838 H   0  0  0  0  0  0  0  0  0  0  0  0
    5.7618    3.1316    1.8643 H   0  0  0  0  0  0  0  0  0  0  0  0
    7.9102    2.3606    0.9847 H   0  0  0  0  0  0  0  0  0  0  0  0
    8.0071    0.3434   -0.4681 H   0  0  0  0  0  0  0  0  0  0  0  0
   -3.9501   -1.5779    2.2197 H   0  0  0  0  0  0  0  0  0  0  0  0
   -3.9512   -1.2090    0.4232 H   0  0  0  0  0  0  0  0  0  0  0  0
   -4.6993   -3.4996   -0.0597 H   0  0  0  0  0  0  0  0  0  0  0  0
   -5.8627   -2.6740    1.1178 H   0  0  0  0  0  0  0  0  0  0  0  0
   -3.6520   -5.2923    0.4776 H   0  0  0  0  0  0  0  0  0  0  0  0
   -3.2820   -5.6069    2.2296 H   0  0  0  0  0  0  0  0  0  0  0  0
   -1.4861   -4.3959    0.7359 H   0  0  0  0  0  0  0  0  0  0  0  0
   -1.7197   -3.9098    2.4282 H   0  0  0  0  0  0  0  0  0  0  0  0
   -1.5180    3.9488   -1.7284 H   0  0  0  0  0  0  0  0  0  0  0  0
  1  2  1  0
  2  3  1  0
  2  4  1  0
  2  5  1  0
  5  6  2  0
  6  7  1  0
  7  8  2  0
  8  9  1  0
  9 10  1  0
 10 11  2  0
 11 12  1  0
 12 13  2  0
 13 14  1  0
 14 15  1  0
 15 16  1  0
 16 17  1  0
 17 18  1  0
 18 19  1  0
 19 20  1  0
 17 21  1  0
 21 22  2  0
 22 23  1  0
 23 24  2  0
 24 25  1  0
 25 26  2  0
 26 27  1  0
 27 28  1  0
 27 29  1  0
 27 30  1  0
 12 31  1  0
 31 32  1  0
 32 33  1  0
 33 34  1  0
 34 35  1  0
 35 36  1  0
  8 37  1  0
 37 38  2  0
 38 39  1  0
 38  5  1  0
 20 10  1  0
 26 21  1  0
 36 31  1  0
 20 14  2  0
  6 40  1  0
  7 41  1  0
  9 42  1  0
 15 43  1  0
 15 44  1  0
 16 45  1  0
 16 46  1  0
 18 47  1  0
 18 48  1  0
 19 49  1  0
 19 50  1  0
 23 51  1  0
 24 52  1  0
 25 53  1  0
 32 54  1  0
 32 55  1  0
 33 56  1  0
 33 57  1  0
 35 58  1  0
 35 59  1  0
 36 60  1  0
 36 61  1  0
 37 62  1  0
M  END
$$$$
[H]c1nc(N2C([H])([H])C([H])([H])c3nc(N4C([H])([H])C([H])([H])C([H])([H])C4([H])[H])nc(N([H])c4nc([H])c(C(F)(F)F)c([H])c4[H])c3C([H])([H])C2([H])[H])c(C(F)(F)F)c([H])c1[H]
     RDKit          3D

 60 64  0  0  0  0  0  0  0  0999 V2000
    5.2236   -6.5623    0.9194 F   0  0  0  0  0  0  0  0  0  0  0  0
    5.6944   -5.3949    0.3390 C   0  0  0  0  0  0  0  0  0  0  0  0
    5.9406   -5.6212   -1.0213 F   0  0  0  0  0  0  0  0  0  0  0  0
    6.8325   -5.0283    0.9836 F   0  0  0  0  0  0  0  0  0  0  0  0
    4.6160   -4.3727    0.4109 C   0  0  0  0  0  0  0  0  0  0  0  0
    4.7836   -3.0758    0.0113 C   0  0  0  0  0  0  0  0  0  0  0  0
    3.7227   -2.1565    0.0608 C   0  0  0  0  0  0  0  0  0  0  0  0
    2.4937   -2.5284    0.5092 C   0  0  0  0  0  0  0  0  0  0  0  0
    1.3268   -1.7377    0.5702 N   0  0  0  0  0  0  0  0  0  0  0  0
    1.1027   -0.4009    0.2467 C   0  0  0  0  0  0  0  0  0  0  0  0
    2.0617    0.5369    0.1654 N   0  0  0  0  0  0  0  0  0  0  0  0
    1.7773    1.8410    0.0496 C   0  0  0  0  0  0  0  0  0  0  0  0
    0.4719    2.2786    0.0064 N   0  0  0  0  0  0  0  0  0  0  0  0
   -0.5325    1.4043    0.0783 C   0  0  0  0  0  0  0  0  0  0  0  0
   -1.8656    2.0679    0.0499 C   0  0  0  0  0  0  0  0  0  0  0  0
   -2.9101    1.1315    0.7264 C   0  0  0  0  0  0  0  0  0  0  0  0
   -3.2426    0.1066   -0.2581 N   0  0  0  0  0  0  0  0  0  0  0  0
   -2.2532   -0.7301   -0.8794 C   0  0  0  0  0  0  0  0  0  0  0  0
   -1.1734   -1.0570    0.1527 C   0  0  0  0  0  0  0  0  0  0  0  0
   -0.2247    0.0772    0.1932 C   0  0  0  0  0  0  0  0  0  0  0  0
   -4.6145   -0.0032   -0.5973 C   0  0  0  0  0  0  0  0  0  0  0  0
   -5.0306    0.6148   -1.7512 N   0  0  0  0  0  0  0  0  0  0  0  0
   -6.3021    0.5853   -2.1511 C   0  0  0  0  0  0  0  0  0  0  0  0
   -7.2484   -0.0759   -1.4082 C   0  0  0  0  0  0  0  0  0  0  0  0
   -6.8865   -0.7077   -0.2500 C   0  0  0  0  0  0  0  0  0  0  0  0
   -5.5395   -0.6731    0.1671 C   0  0  0  0  0  0  0  0  0  0  0  0
   -5.1774   -1.3944    1.3961 C   0  0  0  0  0  0  0  0  0  0  0  0
   -4.2664   -2.4297    1.1792 F   0  0  0  0  0  0  0  0  0  0  0  0
   -4.8291   -0.5989    2.4587 F   0  0  0  0  0  0  0  0  0  0  0  0
   -6.3273   -2.0874    1.8404 F   0  0  0  0  0  0  0  0  0  0  0  0
    2.7823    2.8051   -0.0145 N   0  0  0  0  0  0  0  0  0  0  0  0
    3.1640    3.7309    1.0582 C   0  0  0  0  0  0  0  0  0  0  0  0
    2.9289    5.0468    0.3195 C   0  0  0  0  0  0  0  0  0  0  0  0
    3.3451    4.7208   -1.1065 C   0  0  0  0  0  0  0  0  0  0  0  0
    3.6269    3.2000   -1.1090 C   0  0  0  0  0  0  0  0  0  0  0  0
    2.3871   -3.8471    0.8987 N   0  0  0  0  0  0  0  0  0  0  0  0
    3.3515   -4.7356    0.8684 C   0  0  0  0  0  0  0  0  0  0  0  0
    5.7431   -2.7534   -0.3451 H   0  0  0  0  0  0  0  0  0  0  0  0
    3.8828   -1.1436   -0.2620 H   0  0  0  0  0  0  0  0  0  0  0  0
    0.4708   -2.2427    1.0176 H   0  0  0  0  0  0  0  0  0  0  0  0
   -2.2132    2.2447   -0.9838 H   0  0  0  0  0  0  0  0  0  0  0  0
   -1.8698    3.0135    0.5974 H   0  0  0  0  0  0  0  0  0  0  0  0
   -2.4093    0.6989    1.6192 H   0  0  0  0  0  0  0  0  0  0  0  0
   -3.7472    1.7838    0.9986 H   0  0  0  0  0  0  0  0  0  0  0  0
   -1.7779   -0.1137   -1.7017 H   0  0  0  0  0  0  0  0  0  0  0  0
   -2.6477   -1.6325   -1.3555 H   0  0  0  0  0  0  0  0  0  0  0  0
   -1.5670   -1.2172    1.1644 H   0  0  0  0  0  0  0  0  0  0  0  0
   -0.6887   -2.0131   -0.1775 H   0  0  0  0  0  0  0  0  0  0  0  0
   -6.6359    1.0814   -3.0651 H   0  0  0  0  0  0  0  0  0  0  0  0
   -8.2995   -0.1007   -1.7505 H   0  0  0  0  0  0  0  0  0  0  0  0
   -7.6228   -1.2410    0.3462 H   0  0  0  0  0  0  0  0  0  0  0  0
    4.2386    3.6561    1.2551 H   0  0  0  0  0  0  0  0  0  0  0  0
    2.5367    3.6308    1.9395 H   0  0  0  0  0  0  0  0  0  0  0  0
    3.5712    5.8466    0.6883 H   0  0  0  0  0  0  0  0  0  0  0  0
    1.8276    5.3057    0.3477 H   0  0  0  0  0  0  0  0  0  0  0  0
    4.2243    5.2638   -1.4393 H   0  0  0  0  0  0  0  0  0  0  0  0
    2.4846    4.9530   -1.7743 H   0  0  0  0  0  0  0  0  0  0  0  0
    3.3773    2.7995   -2.0844 H   0  0  0  0  0  0  0  0  0  0  0  0
    4.7126    3.0168   -0.9245 H   0  0  0  0  0  0  0  0  0  0  0  0
    3.2000   -5.7656    1.1923 H   0  0  0  0  0  0  0  0  0  0  0  0
  1  2  1  0
  2  3  1  0
  2  4  1  0
  2  5  1  0
  5  6  2  0
  6  7  1  0
  7  8  2  0
  8  9  1  0
  9 10  1  0
 10 11  2  0
 11 12  1  0
 12 13  2  0
 13 14  1  0
 14 15  1  0
 15 16  1  0
 16 17  1  0
 17 18  1  0
 18 19  1  0
 19 20  1  0
 17 21  1  0
 21 22  2  0
 22 23  1  0
 23 24  2  0
 24 25  1  0
 25 26  2  0
 26 27  1  0
 27 28  1  0
 27 29  1  0
 27 30  1  0
 12 31  1  0
 31 32  1  0
 32 33  1  0
 33 34  1  0
 34 35  1  0
  8 36  1  0
 36 37  2  0
 37  5  1  0
 20 10  1  0
 26 21  1  0
 35 31  1  0
 20 14  2  0
  6 38  1  0
  7 39  1  0
  9 40  1  0
 15 41  1  0
 15 42  1  0
 16 43  1  0
 16 44  1  0
 18 45  1  0
 18 46  1  0
 19 47  1  0
 19 48  1  0
 23 49  1  0
 24 50  1  0
 25 51  1  0
 32 52  1  0
 32 53  1  0
 33 54  1  0
 33 55  1  0
 34 56  1  0
 34 57  1  0
 35 58  1  0
 35 59  1  0
 37 60  1  0
M  END
$$$$
[H]c1nc(N2C([H])([H])C([H])([H])c3nc(N4C([H])([H])C([H])([H])C([H])([H])C([H])([H])C4([H])[H])nc(N([H])c4c([H])c([H])c(C(F)(F)F)c(Cl)c4[H])c3C([H])([H])C2([H])[H])c(C(F)(F)F)c([H])c1[H]
     RDKit          3D

 64 68  0  0  0  0  0  0  0  0999 V2000
   -2.5718    7.9454    0.2981 F   0  0  0  0  0  0  0  0  0  0  0  0
   -3.2775    6.9222   -0.2983 C   0  0  0  0  0  0  0  0  0  0  0  0
   -4.4075    6.7175    0.4984 F   0  0  0  0  0  0  0  0  0  0  0  0
   -3.7035    7.2441   -1.5487 F   0  0  0  0  0  0  0  0  0  0  0  0
   -2.4392    5.6880   -0.2820 C   0  0  0  0  0  0  0  0  0  0  0  0
   -1.1843    5.7078    0.2710 C   0  0  0  0  0  0  0  0  0  0  0  0
   -0.4291    4.5700    0.2795 C   0  0  0  0  0  0  0  0  0  0  0  0
   -0.8610    3.3420   -0.2552 C   0  0  0  0  0  0  0  0  0  0  0  0
    0.0377    2.2816   -0.1837 N   0  0  0  0  0  0  0  0  0  0  0  0
   -0.2298    0.8866   -0.2283 C   0  0  0  0  0  0  0  0  0  0  0  0
   -1.5070    0.4459   -0.2643 N   0  0  0  0  0  0  0  0  0  0  0  0
   -1.8808   -0.8410   -0.2631 C   0  0  0  0  0  0  0  0  0  0  0  0
   -0.8725   -1.7548   -0.2217 N   0  0  0  0  0  0  0  0  0  0  0  0
    0.4010   -1.4262   -0.1848 C   0  0  0  0  0  0  0  0  0  0  0  0
    1.3562   -2.5913   -0.1201 C   0  0  0  0  0  0  0  0  0  0  0  0
    2.3718   -2.3270    0.9767 C   0  0  0  0  0  0  0  0  0  0  0  0
    3.3948   -1.4596    0.4793 N   0  0  0  0  0  0  0  0  0  0  0  0
    3.2392   -0.3796   -0.4264 C   0  0  0  0  0  0  0  0  0  0  0  0
    2.0807    0.5468   -0.1759 C   0  0  0  0  0  0  0  0  0  0  0  0
    0.7657   -0.0724   -0.1882 C   0  0  0  0  0  0  0  0  0  0  0  0
    4.7083   -1.6920    0.9528 C   0  0  0  0  0  0  0  0  0  0  0  0
    5.0898   -0.8465    1.9678 N   0  0  0  0  0  0  0  0  0  0  0  0
    6.2686   -0.8931    2.5744 C   0  0  0  0  0  0  0  0  0  0  0  0
    7.1591   -1.8519    2.1543 C   0  0  0  0  0  0  0  0  0  0  0  0
    6.8220   -2.7155    1.1462 C   0  0  0  0  0  0  0  0  0  0  0  0
    5.5706   -2.6531    0.5138 C   0  0  0  0  0  0  0  0  0  0  0  0
    5.2131   -3.5612   -0.5711 C   0  0  0  0  0  0  0  0  0  0  0  0
    4.8650   -2.9531   -1.7594 F   0  0  0  0  0  0  0  0  0  0  0  0
    6.4427   -4.2057   -0.9211 F   0  0  0  0  0  0  0  0  0  0  0  0
    4.4194   -4.5945   -0.1941 F   0  0  0  0  0  0  0  0  0  0  0  0
   -3.2244   -1.2799   -0.2992 N   0  0  0  0  0  0  0  0  0  0  0  0
   -3.4874   -2.6765   -0.3090 C   0  0  0  0  0  0  0  0  0  0  0  0
   -4.9149   -3.0584   -0.0749 C   0  0  0  0  0  0  0  0  0  0  0  0
   -5.9206   -2.0950   -0.5889 C   0  0  0  0  0  0  0  0  0  0  0  0
   -5.3574   -0.8854   -1.2659 C   0  0  0  0  0  0  0  0  0  0  0  0
   -4.2913   -0.3115   -0.3235 C   0  0  0  0  0  0  0  0  0  0  0  0
   -2.1161    3.3416   -0.8037 C   0  0  0  0  0  0  0  0  0  0  0  0
   -2.8799    4.4993   -0.8100 C   0  0  0  0  0  0  0  0  0  0  0  0
   -4.4808    4.4579   -1.5204 Cl  0  0  0  0  0  0  0  0  0  0  0  0
   -0.8280    6.6353    0.6879 H   0  0  0  0  0  0  0  0  0  0  0  0
    0.5618    4.6497    0.7355 H   0  0  0  0  0  0  0  0  0  0  0  0
    1.0723    2.5450   -0.0783 H   0  0  0  0  0  0  0  0  0  0  0  0
    1.7945   -2.8327   -1.0845 H   0  0  0  0  0  0  0  0  0  0  0  0
    0.7387   -3.4525    0.2079 H   0  0  0  0  0  0  0  0  0  0  0  0
    2.6481   -3.2462    1.4497 H   0  0  0  0  0  0  0  0  0  0  0  0
    1.7515   -1.7784    1.7729 H   0  0  0  0  0  0  0  0  0  0  0  0
    4.1553    0.2723   -0.3953 H   0  0  0  0  0  0  0  0  0  0  0  0
    3.1636   -0.6779   -1.5137 H   0  0  0  0  0  0  0  0  0  0  0  0
    2.2455    1.1198    0.7244 H   0  0  0  0  0  0  0  0  0  0  0  0
    2.1182    1.2514   -1.0645 H   0  0  0  0  0  0  0  0  0  0  0  0
    6.5411   -0.1975    3.3864 H   0  0  0  0  0  0  0  0  0  0  0  0
    8.1245   -1.9108    2.6319 H   0  0  0  0  0  0  0  0  0  0  0  0
    7.4903   -3.4875    0.7831 H   0  0  0  0  0  0  0  0  0  0  0  0
   -2.8161   -3.1434    0.4700 H   0  0  0  0  0  0  0  0  0  0  0  0
   -3.1782   -3.0881   -1.2916 H   0  0  0  0  0  0  0  0  0  0  0  0
   -5.1210   -4.0909   -0.4329 H   0  0  0  0  0  0  0  0  0  0  0  0
   -5.0466   -3.1208    1.0458 H   0  0  0  0  0  0  0  0  0  0  0  0
   -6.6439   -1.7825    0.1991 H   0  0  0  0  0  0  0  0  0  0  0  0
   -6.5557   -2.6230   -1.3551 H   0  0  0  0  0  0  0  0  0  0  0  0
   -4.8915   -1.1794   -2.2316 H   0  0  0  0  0  0  0  0  0  0  0  0
   -6.1791   -0.1611   -1.4157 H   0  0  0  0  0  0  0  0  0  0  0  0
   -4.7963   -0.2774    0.6813 H   0  0  0  0  0  0  0  0  0  0  0  0
   -4.0195    0.6721   -0.6986 H   0  0  0  0  0  0  0  0  0  0  0  0
   -2.4988    2.4330   -1.2444 H   0  0  0  0  0  0  0  0  0  0  0  0
  1  2  1  0
  2  3  1  0
  2  4  1  0
  2  5  1  0
  5  6  2  0
  6  7  1  0
  7  8  2  0
  8  9  1  0
  9 10  1  0
 10 11  2  0
 11 12  1  0
 12 13  2  0
 13 14  1  0
 14 15  1  0
 15 16  1  0
 16 17  1  0
 17 18  1  0
 18 19  1  0
 19 20  1  0
 17 21  1  0
 21 22  2  0
 22 23  1  0
 23 24  2  0
 24 25  1  0
 25 26  2  0
 26 27  1  0
 27 28  1  0
 27 29  1  0
 27 30  1  0
 12 31  1  0
 31 32  1  0
 32 33  1  0
 33 34  1  0
 34 35  1  0
 35 36  1  0
  8 37  1  0
 37 38  2  0
 38 39  1  0
 38  5  1  0
 20 10  1  0
 26 21  1  0
 36 31  1  0
 20 14  2  0
  6 40  1  0
  7 41  1  0
  9 42  1  0
 15 43  1  0
 15 44  1  0
 16 45  1  0
 16 46  1  0
 18 47  1  0
 18 48  1  0
 19 49  1  0
 19 50  1  0
 23 51  1  0
 24 52  1  0
 25 53  1  0
 32 54  1  0
 32 55  1  0
 33 56  1  0
 33 57  1  0
 34 58  1  0
 34 59  1  0
 35 60  1  0
 35 61  1  0
 36 62  1  0
 36 63  1  0
 37 64  1  0
M  END
$$$$
[H]c1nc(N2C([H])([H])C([H])([H])c3nc(-c4c([H])c([H])nc([H])c4[H])nc(N([H])c4c([H])c([H])c(C(F)(F)F)c([H])c4[H])c3C([H])([H])C2([H])[H])c(C(F)(F)F)c([H])c1[H]
     RDKit          3D

 58 62  0  0  0  0  0  0  0  0999 V2000
    6.6133    4.1199    1.3156 F   0  0  0  0  0  0  0  0  0  0  0  0
    6.5187    3.8840   -0.0475 C   0  0  0  0  0  0  0  0  0  0  0  0
    7.6193    3.3136   -0.5819 F   0  0  0  0  0  0  0  0  0  0  0  0
    6.3216    5.1031   -0.7147 F   0  0  0  0  0  0  0  0  0  0  0  0
    5.2799    3.0865   -0.2258 C   0  0  0  0  0  0  0  0  0  0  0  0
    4.0951    3.7985   -0.3312 C   0  0  0  0  0  0  0  0  0  0  0  0
    2.9008    3.1246   -0.4695 C   0  0  0  0  0  0  0  0  0  0  0  0
    2.8112    1.7139   -0.5094 C   0  0  0  0  0  0  0  0  0  0  0  0
    1.5311    1.1186   -0.6228 N   0  0  0  0  0  0  0  0  0  0  0  0
    1.0782   -0.1484   -0.3633 C   0  0  0  0  0  0  0  0  0  0  0  0
    1.8728   -1.2174   -0.2251 N   0  0  0  0  0  0  0  0  0  0  0  0
    1.3903   -2.4588   -0.1312 C   0  0  0  0  0  0  0  0  0  0  0  0
    0.0679   -2.6493   -0.1795 N   0  0  0  0  0  0  0  0  0  0  0  0
   -0.8511   -1.6519   -0.3165 C   0  0  0  0  0  0  0  0  0  0  0  0
   -2.1982   -2.2205   -0.4233 C   0  0  0  0  0  0  0  0  0  0  0  0
   -3.2910   -1.4853    0.2465 C   0  0  0  0  0  0  0  0  0  0  0  0
   -3.2030   -0.0636    0.2101 N   0  0  0  0  0  0  0  0  0  0  0  0
   -2.1009    0.7217    0.7539 C   0  0  0  0  0  0  0  0  0  0  0  0
   -1.0607    0.8917   -0.3639 C   0  0  0  0  0  0  0  0  0  0  0  0
   -0.3050   -0.3883   -0.4013 C   0  0  0  0  0  0  0  0  0  0  0  0
   -4.1917    0.7725   -0.3665 C   0  0  0  0  0  0  0  0  0  0  0  0
   -4.0165    1.2440   -1.6440 N   0  0  0  0  0  0  0  0  0  0  0  0
   -4.8751    2.0289   -2.2814 C   0  0  0  0  0  0  0  0  0  0  0  0
   -6.0489    2.4435   -1.6823 C   0  0  0  0  0  0  0  0  0  0  0  0
   -6.2709    2.0014   -0.4093 C   0  0  0  0  0  0  0  0  0  0  0  0
   -5.3524    1.1652    0.2601 C   0  0  0  0  0  0  0  0  0  0  0  0
   -5.6791    0.7772    1.6244 C   0  0  0  0  0  0  0  0  0  0  0  0
   -5.7877   -0.5770    1.8533 F   0  0  0  0  0  0  0  0  0  0  0  0
   -6.9518    1.2779    1.9536 F   0  0  0  0  0  0  0  0  0  0  0  0
   -4.8526    1.3740    2.5735 F   0  0  0  0  0  0  0  0  0  0  0  0
    2.2055   -3.6716    0.0499 C   0  0  0  0  0  0  0  0  0  0  0  0
    3.5659   -3.6574    0.0955 C   0  0  0  0  0  0  0  0  0  0  0  0
    4.2522   -4.8415    0.3137 C   0  0  0  0  0  0  0  0  0  0  0  0
    3.6415   -6.0201    0.4817 N   0  0  0  0  0  0  0  0  0  0  0  0
    2.3148   -6.0559    0.4388 C   0  0  0  0  0  0  0  0  0  0  0  0
    1.5945   -4.9032    0.2262 C   0  0  0  0  0  0  0  0  0  0  0  0
    3.9976    1.0517   -0.4057 C   0  0  0  0  0  0  0  0  0  0  0  0
    5.2250    1.7099   -0.2639 C   0  0  0  0  0  0  0  0  0  0  0  0
    4.1135    4.9052   -0.3127 H   0  0  0  0  0  0  0  0  0  0  0  0
    2.0086    3.6888   -0.5540 H   0  0  0  0  0  0  0  0  0  0  0  0
    0.8159    1.7982   -1.1038 H   0  0  0  0  0  0  0  0  0  0  0  0
   -2.1761   -3.2531    0.0402 H   0  0  0  0  0  0  0  0  0  0  0  0
   -2.4120   -2.3253   -1.5332 H   0  0  0  0  0  0  0  0  0  0  0  0
   -3.2765   -1.8150    1.3268 H   0  0  0  0  0  0  0  0  0  0  0  0
   -4.2572   -1.8324   -0.2075 H   0  0  0  0  0  0  0  0  0  0  0  0
   -2.4224    1.7199    1.0417 H   0  0  0  0  0  0  0  0  0  0  0  0
   -1.6243    0.1655    1.5450 H   0  0  0  0  0  0  0  0  0  0  0  0
   -1.4936    1.1000   -1.3169 H   0  0  0  0  0  0  0  0  0  0  0  0
   -0.4311    1.7661   -0.0571 H   0  0  0  0  0  0  0  0  0  0  0  0
   -4.6965    2.3859   -3.2904 H   0  0  0  0  0  0  0  0  0  0  0  0
   -6.7496    3.0929   -2.2030 H   0  0  0  0  0  0  0  0  0  0  0  0
   -7.1769    2.3123    0.0742 H   0  0  0  0  0  0  0  0  0  0  0  0
    4.1068   -2.7544   -0.0406 H   0  0  0  0  0  0  0  0  0  0  0  0
    5.3517   -4.8378    0.3583 H   0  0  0  0  0  0  0  0  0  0  0  0
    1.7436   -6.9900    0.5638 H   0  0  0  0  0  0  0  0  0  0  0  0
    0.5187   -4.9565    0.1976 H   0  0  0  0  0  0  0  0  0  0  0  0
    4.0333   -0.0321   -0.4287 H   0  0  0  0  0  0  0  0  0  0  0  0
    6.1635    1.1498   -0.1779 H   0  0  0  0  0  0  0  0  0  0  0  0
  1  2  1  0
  2  3  1  0
  2  4  1  0
  2  5  1  0
  5  6  2  0
  6  7  1  0
  7  8  2  0
  8  9  1  0
  9 10  1  0
 10 11  2  0
 11 12  1  0
 12 13  2  0
 13 14  1  0
 14 15  1  0
 15 16  1  0
 16 17  1  0
 17 18  1  0
 18 19  1  0
 19 20  1  0
 17 21  1  0
 21 22  2  0
 22 23  1  0
 23 24  2  0
 24 25  1  0
 25 26  2  0
 26 27  1  0
 27 28  1  0
 27 29  1  0
 27 30  1  0
 12 31  1  0
 31 32  2  0
 32 33  1  0
 33 34  2  0
 34 35  1  0
 35 36  2  0
  8 37  1  0
 37 38  2  0
 38  5  1  0
 20 10  1  0
 26 21  1  0
 36 31  1  0
 20 14  2  0
  6 39  1  0
  7 40  1  0
  9 41  1  0
 15 42  1  0
 15 43  1  0
 16 44  1  0
 16 45  1  0
 18 46  1  0
 18 47  1  0
 19 48  1  0
 19 49  1  0
 23 50  1  0
 24 51  1  0
 25 52  1  0
 32 53  1  0
 33 54  1  0
 35 55  1  0
 36 56  1  0
 37 57  1  0
 38 58  1  0
M  END
$$$$
[H]C1=C(C(=O)N([H])c2c([H])c([H])c(C(F)(F)F)c([H])c2[H])C([H])([H])C([H])([H])N(c2nc([H])c([H])c([H])c2C(F)(F)F)C1([H])[H]
     RDKit          3D

 44 46  0  0  0  0  0  0  0  0999 V2000
    8.4979   -0.2307   -0.5340 F   0  0  0  0  0  0  0  0  0  0  0  0
    7.7869   -0.2413    0.6622 C   0  0  0  0  0  0  0  0  0  0  0  0
    8.0639   -1.4045    1.2879 F   0  0  0  0  0  0  0  0  0  0  0  0
    8.2127    0.8471    1.4374 F   0  0  0  0  0  0  0  0  0  0  0  0
    6.3631   -0.1208    0.3410 C   0  0  0  0  0  0  0  0  0  0  0  0
    5.3935   -0.5154    1.2422 C   0  0  0  0  0  0  0  0  0  0  0  0
    4.0735   -0.3616    0.9330 C   0  0  0  0  0  0  0  0  0  0  0  0
    3.6340    0.1718   -0.2417 C   0  0  0  0  0  0  0  0  0  0  0  0
    2.2428    0.3152   -0.5849 N   0  0  0  0  0  0  0  0  0  0  0  0
    1.3062   -0.7165   -0.3845 C   0  0  0  0  0  0  0  0  0  0  0  0
    1.7515   -1.8176    0.1024 O   0  0  0  0  0  0  0  0  0  0  0  0
   -0.0894   -0.6115   -0.6791 C   0  0  0  0  0  0  0  0  0  0  0  0
   -0.8951   -1.6477   -0.4783 C   0  0  0  0  0  0  0  0  0  0  0  0
   -2.3679   -1.4592   -0.7926 C   0  0  0  0  0  0  0  0  0  0  0  0
   -2.7854   -0.2883   -0.1638 N   0  0  0  0  0  0  0  0  0  0  0  0
   -1.9278    0.9387   -0.3599 C   0  0  0  0  0  0  0  0  0  0  0  0
   -0.7326    0.6397   -1.1989 C   0  0  0  0  0  0  0  0  0  0  0  0
   -3.8876    0.0884    0.6609 C   0  0  0  0  0  0  0  0  0  0  0  0
   -3.6233    0.4662    1.9557 N   0  0  0  0  0  0  0  0  0  0  0  0
   -4.5439    0.9408    2.7824 C   0  0  0  0  0  0  0  0  0  0  0  0
   -5.8522    1.0731    2.3486 C   0  0  0  0  0  0  0  0  0  0  0  0
   -6.1884    0.7149    1.0733 C   0  0  0  0  0  0  0  0  0  0  0  0
   -5.1799    0.2114    0.2208 C   0  0  0  0  0  0  0  0  0  0  0  0
   -5.5218   -0.2659   -1.1398 C   0  0  0  0  0  0  0  0  0  0  0  0
   -4.8150    0.2801   -2.1477 F   0  0  0  0  0  0  0  0  0  0  0  0
   -6.8785    0.0638   -1.3261 F   0  0  0  0  0  0  0  0  0  0  0  0
   -5.5310   -1.6730   -1.1464 F   0  0  0  0  0  0  0  0  0  0  0  0
    4.6067    0.5770   -1.1581 C   0  0  0  0  0  0  0  0  0  0  0  0
    5.9735    0.4344   -0.8688 C   0  0  0  0  0  0  0  0  0  0  0  0
    5.7099   -0.9634    2.1982 H   0  0  0  0  0  0  0  0  0  0  0  0
    3.3160   -0.6984    1.6465 H   0  0  0  0  0  0  0  0  0  0  0  0
    1.9414    1.2247   -0.9608 H   0  0  0  0  0  0  0  0  0  0  0  0
   -0.4825   -2.5484   -0.1237 H   0  0  0  0  0  0  0  0  0  0  0  0
   -2.3951   -1.3156   -1.8800 H   0  0  0  0  0  0  0  0  0  0  0  0
   -2.8305   -2.3903   -0.4661 H   0  0  0  0  0  0  0  0  0  0  0  0
   -1.5926    1.2457    0.6783 H   0  0  0  0  0  0  0  0  0  0  0  0
   -2.5940    1.7122   -0.7483 H   0  0  0  0  0  0  0  0  0  0  0  0
   -1.0343    0.5585   -2.2647 H   0  0  0  0  0  0  0  0  0  0  0  0
   -0.0310    1.4909   -1.0545 H   0  0  0  0  0  0  0  0  0  0  0  0
   -4.3076    1.2304    3.7891 H   0  0  0  0  0  0  0  0  0  0  0  0
   -6.6665    1.4586    2.9718 H   0  0  0  0  0  0  0  0  0  0  0  0
   -7.1787    0.8263    0.6739 H   0  0  0  0  0  0  0  0  0  0  0  0
    4.3286    1.0106   -2.1088 H   0  0  0  0  0  0  0  0  0  0  0  0
    6.7303    0.7495   -1.5574 H   0  0  0  0  0  0  0  0  0  0  0  0
  1  2  1  0
  2  3  1  0
  2  4  1  0
  2  5  1  0
  5  6  2  0
  6  7  1  0
  7  8  2  0
  8  9  1  0
  9 10  1  0
 10 11  2  0
 10 12  1  0
 12 13  2  0
 13 14  1  0
 14 15  1  0
 15 16  1  0
 16 17  1  0
 15 18  1  0
 18 19  2  0
 19 20  1  0
 20 21  2  0
 21 22  1  0
 22 23  2  0
 23 24  1  0
 24 25  1  0
 24 26  1  0
 24 27  1  0
  8 28  1  0
 28 29  2  0
 29  5  1  0
 17 12  1  0
 23 18  1  0
  6 30  1  0
  7 31  1  0
  9 32  1  0
 13 33  1  0
 14 34  1  0
 14 35  1  0
 16 36  1  0
 16 37  1  0
 17 38  1  0
 17 39  1  0
 20 40  1  0
 21 41  1  0
 22 42  1  0
 28 43  1  0
 29 44  1  0
M  END
$$$$
[H]c1nc(N2C([H])([H])C([H])([H])c3nc(N4C([H])([H])C([H])([H])C([H])([H])C4([H])[H])nc(N([H])c4c([H])c([H])c(C(F)(F)F)c(Cl)c4[H])c3C([H])([H])C2([H])[H])c(C(F)(F)F)c([H])c1[H]
     RDKit          3D

 61 65  0  0  0  0  0  0  0  0999 V2000
   -5.6482    5.4289    1.4800 F   0  0  0  0  0  0  0  0  0  0  0  0
   -5.6325    5.0156    0.1549 C   0  0  0  0  0  0  0  0  0  0  0  0
   -5.5272    6.0937   -0.6967 F   0  0  0  0  0  0  0  0  0  0  0  0
   -6.7492    4.2522   -0.1076 F   0  0  0  0  0  0  0  0  0  0  0  0
   -4.4455    4.1571   -0.0191 C   0  0  0  0  0  0  0  0  0  0  0  0
   -4.5494    2.8370   -0.4229 C   0  0  0  0  0  0  0  0  0  0  0  0
   -3.4402    2.0355   -0.5852 C   0  0  0  0  0  0  0  0  0  0  0  0
   -2.2019    2.5326   -0.3478 C   0  0  0  0  0  0  0  0  0  0  0  0
   -0.9709    1.8329   -0.4400 N   0  0  0  0  0  0  0  0  0  0  0  0
   -0.7683    0.4425   -0.4075 C   0  0  0  0  0  0  0  0  0  0  0  0
   -1.7959   -0.4286   -0.1639 N   0  0  0  0  0  0  0  0  0  0  0  0
   -1.6533   -1.7528   -0.0643 C   0  0  0  0  0  0  0  0  0  0  0  0
   -0.4177   -2.2763   -0.2119 N   0  0  0  0  0  0  0  0  0  0  0  0
    0.6546   -1.5210   -0.4525 C   0  0  0  0  0  0  0  0  0  0  0  0
    1.9451   -2.2488   -0.5719 C   0  0  0  0  0  0  0  0  0  0  0  0
    2.9252   -1.7289    0.4784 C   0  0  0  0  0  0  0  0  0  0  0  0
    3.3590   -0.3873    0.2504 N   0  0  0  0  0  0  0  0  0  0  0  0
    2.5467    0.8285    0.3087 C   0  0  0  0  0  0  0  0  0  0  0  0
    1.5359    0.8101   -0.8327 C   0  0  0  0  0  0  0  0  0  0  0  0
    0.4557   -0.1221   -0.5514 C   0  0  0  0  0  0  0  0  0  0  0  0
    4.7316   -0.2289   -0.0575 C   0  0  0  0  0  0  0  0  0  0  0  0
    5.1325   -0.2035   -1.3666 N   0  0  0  0  0  0  0  0  0  0  0  0
    6.4214   -0.0750   -1.7208 C   0  0  0  0  0  0  0  0  0  0  0  0
    7.4025    0.0378   -0.7587 C   0  0  0  0  0  0  0  0  0  0  0  0
    7.0305    0.0158    0.5485 C   0  0  0  0  0  0  0  0  0  0  0  0
    5.6765   -0.1188    0.9231 C   0  0  0  0  0  0  0  0  0  0  0  0
    5.3443   -0.1144    2.3468 C   0  0  0  0  0  0  0  0  0  0  0  0
    6.5406    0.0757    3.0789 F   0  0  0  0  0  0  0  0  0  0  0  0
    4.8824   -1.3294    2.8394 F   0  0  0  0  0  0  0  0  0  0  0  0
    4.5297    0.9370    2.7251 F   0  0  0  0  0  0  0  0  0  0  0  0
   -2.7669   -2.6208    0.1925 N   0  0  0  0  0  0  0  0  0  0  0  0
   -2.7225   -4.0563    0.3179 C   0  0  0  0  0  0  0  0  0  0  0  0
   -4.0002   -4.4451    0.9990 C   0  0  0  0  0  0  0  0  0  0  0  0
   -4.6924   -3.1503    1.3759 C   0  0  0  0  0  0  0  0  0  0  0  0
   -4.1169   -2.1888    0.3667 C   0  0  0  0  0  0  0  0  0  0  0  0
   -2.1114    3.8736    0.0610 C   0  0  0  0  0  0  0  0  0  0  0  0
   -3.1974    4.6903    0.2292 C   0  0  0  0  0  0  0  0  0  0  0  0
   -3.0756    6.3552    0.7374 Cl  0  0  0  0  0  0  0  0  0  0  0  0
   -5.5190    2.4212   -0.6162 H   0  0  0  0  0  0  0  0  0  0  0  0
   -3.5808    1.0382   -0.9086 H   0  0  0  0  0  0  0  0  0  0  0  0
   -0.1303    2.4384   -0.5343 H   0  0  0  0  0  0  0  0  0  0  0  0
    2.3603   -2.2370   -1.5772 H   0  0  0  0  0  0  0  0  0  0  0  0
    1.7467   -3.3058   -0.2970 H   0  0  0  0  0  0  0  0  0  0  0  0
    3.7830   -2.4328    0.4487 H   0  0  0  0  0  0  0  0  0  0  0  0
    2.4123   -1.8415    1.4390 H   0  0  0  0  0  0  0  0  0  0  0  0
    1.9737    0.8464    1.2497 H   0  0  0  0  0  0  0  0  0  0  0  0
    3.1347    1.7390    0.2014 H   0  0  0  0  0  0  0  0  0  0  0  0
    1.3489    1.7734   -1.2473 H   0  0  0  0  0  0  0  0  0  0  0  0
    2.1578    0.3030   -1.6722 H   0  0  0  0  0  0  0  0  0  0  0  0
    6.7456   -0.0541   -2.7522 H   0  0  0  0  0  0  0  0  0  0  0  0
    8.4543    0.1425   -1.0347 H   0  0  0  0  0  0  0  0  0  0  0  0
    7.7880    0.1030    1.3175 H   0  0  0  0  0  0  0  0  0  0  0  0
   -1.8326   -4.3547    0.9152 H   0  0  0  0  0  0  0  0  0  0  0  0
   -2.6107   -4.4780   -0.6994 H   0  0  0  0  0  0  0  0  0  0  0  0
   -3.8292   -5.0823    1.8702 H   0  0  0  0  0  0  0  0  0  0  0  0
   -4.6311   -5.0305    0.2745 H   0  0  0  0  0  0  0  0  0  0  0  0
   -5.7928   -3.2919    1.2469 H   0  0  0  0  0  0  0  0  0  0  0  0
   -4.5194   -2.8503    2.4112 H   0  0  0  0  0  0  0  0  0  0  0  0
   -4.7334   -2.2662   -0.5549 H   0  0  0  0  0  0  0  0  0  0  0  0
   -4.2060   -1.1726    0.7860 H   0  0  0  0  0  0  0  0  0  0  0  0
   -1.1507    4.3377    0.2695 H   0  0  0  0  0  0  0  0  0  0  0  0
  1  2  1  0
  2  3  1  0
  2  4  1  0
  2  5  1  0
  5  6  2  0
  6  7  1  0
  7  8  2  0
  8  9  1  0
  9 10  1  0
 10 11  2  0
 11 12  1  0
 12 13  2  0
 13 14  1  0
 14 15  1  0
 15 16  1  0
 16 17  1  0
 17 18  1  0
 18 19  1  0
 19 20  1  0
 17 21  1  0
 21 22  2  0
 22 23  1  0
 23 24  2  0
 24 25  1  0
 25 26  2  0
 26 27  1  0
 27 28  1  0
 27 29  1  0
 27 30  1  0
 12 31  1  0
 31 32  1  0
 32 33  1  0
 33 34  1  0
 34 35  1  0
  8 36  1  0
 36 37  2  0
 37 38  1  0
 37  5  1  0
 20 10  1  0
 26 21  1  0
 35 31  1  0
 20 14  2  0
  6 39  1  0
  7 40  1  0
  9 41  1  0
 15 42  1  0
 15 43  1  0
 16 44  1  0
 16 45  1  0
 18 46  1  0
 18 47  1  0
 19 48  1  0
 19 49  1  0
 23 50  1  0
 24 51  1  0
 25 52  1  0
 32 53  1  0
 32 54  1  0
 33 55  1  0
 33 56  1  0
 34 57  1  0
 34 58  1  0
 35 59  1  0
 35 60  1  0
 36 61  1  0
M  END
$$$$
[H]c1nc([H])c2c([H])c([H])c([H])c(N([H])C(=O)N([H])C([H])([H])c3c(N4C([H])([H])C([H])([H])C([H])(C([H])([H])[H])C([H])([H])C4([H])[H])nc(C(F)(F)F)c([H])c3[H])c2c1[H]
     RDKit          3D

 56 59  0  0  0  0  0  0  0  0999 V2000
    6.2871    0.8603    2.4783 C   0  0  0  0  0  0  0  0  0  0  0  0
    5.4398    0.1778    1.3954 C   0  0  0  0  0  0  0  0  0  0  0  0
    4.9640    1.2409    0.4577 C   0  0  0  0  0  0  0  0  0  0  0  0
    3.4430    1.5331    0.7699 C   0  0  0  0  0  0  0  0  0  0  0  0
    2.8896    0.3079    0.3736 N   0  0  0  0  0  0  0  0  0  0  0  0
    3.2804   -0.9099    1.0814 C   0  0  0  0  0  0  0  0  0  0  0  0
    4.2954   -0.5111    2.0807 C   0  0  0  0  0  0  0  0  0  0  0  0
    2.1571    0.0753   -0.7913 C   0  0  0  0  0  0  0  0  0  0  0  0
    2.8814    0.1967   -1.9629 N   0  0  0  0  0  0  0  0  0  0  0  0
    2.2985   -0.1203   -3.1105 C   0  0  0  0  0  0  0  0  0  0  0  0
    1.0220   -0.5819   -3.2344 C   0  0  0  0  0  0  0  0  0  0  0  0
    0.2343   -0.7259   -2.0568 C   0  0  0  0  0  0  0  0  0  0  0  0
    0.8649   -0.3735   -0.9157 C   0  0  0  0  0  0  0  0  0  0  0  0
    0.0664   -0.2006    0.3443 C   0  0  0  0  0  0  0  0  0  0  0  0
   -1.2449   -0.3856    0.0280 N   0  0  0  0  0  0  0  0  0  0  0  0
   -2.5314   -0.6313   -0.2767 C   0  0  0  0  0  0  0  0  0  0  0  0
   -3.2126   -1.5506   -0.4126 O   0  0  0  0  0  0  0  0  0  0  0  0
   -3.2028    0.7732   -0.4567 N   0  0  0  0  0  0  0  0  0  0  0  0
   -4.3858    0.6082    0.2311 C   0  0  0  0  0  0  0  0  0  0  0  0
   -4.0990    0.8511    1.6658 C   0  0  0  0  0  0  0  0  0  0  0  0
   -5.0134    0.8126    2.5930 C   0  0  0  0  0  0  0  0  0  0  0  0
   -6.3269    0.5270    2.2015 C   0  0  0  0  0  0  0  0  0  0  0  0
   -6.5997    0.3086    0.9144 C   0  0  0  0  0  0  0  0  0  0  0  0
   -7.8882   -0.1388    0.5228 C   0  0  0  0  0  0  0  0  0  0  0  0
   -8.1154   -0.5004   -0.7238 N   0  0  0  0  0  0  0  0  0  0  0  0
   -7.1589   -0.4690   -1.7081 C   0  0  0  0  0  0  0  0  0  0  0  0
   -5.8982   -0.0332   -1.3779 C   0  0  0  0  0  0  0  0  0  0  0  0
   -5.6490    0.3406   -0.0753 C   0  0  0  0  0  0  0  0  0  0  0  0
    3.1441    0.0045   -4.3746 C   0  0  0  0  0  0  0  0  0  0  0  0
    3.9264   -1.1614   -4.2846 F   0  0  0  0  0  0  0  0  0  0  0  0
    2.3749    0.0865   -5.4538 F   0  0  0  0  0  0  0  0  0  0  0  0
    3.9427    1.1010   -4.1790 F   0  0  0  0  0  0  0  0  0  0  0  0
    7.1441    1.3488    1.9725 H   0  0  0  0  0  0  0  0  0  0  0  0
    6.5959    0.1288    3.2049 H   0  0  0  0  0  0  0  0  0  0  0  0
    5.6189    1.6290    2.9498 H   0  0  0  0  0  0  0  0  0  0  0  0
    6.0595   -0.5915    0.8847 H   0  0  0  0  0  0  0  0  0  0  0  0
    5.5369    2.1176    0.4325 H   0  0  0  0  0  0  0  0  0  0  0  0
    4.9290    0.7738   -0.5727 H   0  0  0  0  0  0  0  0  0  0  0  0
    3.2132    2.4060    0.1020 H   0  0  0  0  0  0  0  0  0  0  0  0
    3.3911    1.8023    1.8353 H   0  0  0  0  0  0  0  0  0  0  0  0
    2.5040   -1.5625    1.4042 H   0  0  0  0  0  0  0  0  0  0  0  0
    3.8925   -1.4956    0.2681 H   0  0  0  0  0  0  0  0  0  0  0  0
    4.6417   -1.4621    2.5832 H   0  0  0  0  0  0  0  0  0  0  0  0
    3.8224    0.1025    2.8551 H   0  0  0  0  0  0  0  0  0  0  0  0
    0.5340   -0.8465   -4.1236 H   0  0  0  0  0  0  0  0  0  0  0  0
   -0.7431   -1.1408   -2.0384 H   0  0  0  0  0  0  0  0  0  0  0  0
    0.2234    0.8888    0.6690 H   0  0  0  0  0  0  0  0  0  0  0  0
    0.4859   -0.7882    1.1219 H   0  0  0  0  0  0  0  0  0  0  0  0
   -1.2906   -1.5364    0.7977 H   0  0  0  0  0  0  0  0  0  0  0  0
   -2.6973    1.4280   -0.9669 H   0  0  0  0  0  0  0  0  0  0  0  0
   -3.0416    1.0564    1.8228 H   0  0  0  0  0  0  0  0  0  0  0  0
   -4.7711    1.0230    3.6150 H   0  0  0  0  0  0  0  0  0  0  0  0
   -7.0713    0.5237    2.9852 H   0  0  0  0  0  0  0  0  0  0  0  0
   -8.6783   -0.2248    1.3040 H   0  0  0  0  0  0  0  0  0  0  0  0
   -7.3585   -0.8012   -2.7112 H   0  0  0  0  0  0  0  0  0  0  0  0
   -5.1267    0.0363   -2.1388 H   0  0  0  0  0  0  0  0  0  0  0  0
  1  2  1  0
  2  3  1  0
  3  4  1  0
  4  5  1  0
  5  6  1  0
  6  7  1  0
  5  8  1  0
  8  9  2  0
  9 10  1  0
 10 11  2  0
 11 12  1  0
 12 13  2  0
 13 14  1  0
 14 15  1  0
 15 16  1  0
 16 17  2  0
 16 18  1  0
 18 19  1  0
 19 20  2  0
 20 21  1  0
 21 22  2  0
 22 23  1  0
 23 24  2  0
 24 25  1  0
 25 26  2  0
 26 27  1  0
 27 28  2  0
 10 29  1  0
 29 30  1  0
 29 31  1  0
 29 32  1  0
  7  2  1  0
 13  8  1  0
 28 19  1  0
 28 23  1  0
  1 33  1  0
  1 34  1  0
  1 35  1  0
  2 36  1  0
  3 37  1  0
  3 38  1  0
  4 39  1  0
  4 40  1  0
  6 41  1  0
  6 42  1  0
  7 43  1  0
  7 44  1  0
 11 45  1  0
 12 46  1  0
 14 47  1  0
 14 48  1  0
 15 49  1  0
 18 50  1  0
 20 51  1  0
 21 52  1  0
 22 53  1  0
 24 54  1  0
 26 55  1  0
 27 56  1  0
M  END
$$$$
