[H]c1c([H])c([C@]([H])(N([H])C(=O)c2c([H])c([H])c(N([H])C(=O)N3C([H])([H])C([H])([H])N(c4c([H])c([H])c(C([H])([H])[H])c([H])c4F)C([H])([H])C3([H])[H])c([H])c2[H])C([H])([H])[H])c([H])c(F)c1F
     RDKit          3D

 63 66  0  0  0  0  0  0  0  0999 V2000
   -7.8278   -1.7526   -0.9197 C   0  0  0  0  0  0  0  0  0  0  0  0
   -7.2964   -0.6951    0.0170 C   0  0  1  0  0  0  0  0  0  0  0  0
   -5.8398   -0.7198   -0.0455 N   0  0  0  0  0  0  0  0  0  0  0  0
   -5.0968   -0.9737    1.1319 C   0  0  0  0  0  0  0  0  0  0  0  0
   -5.6478   -1.1820    2.2472 O   0  0  0  0  0  0  0  0  0  0  0  0
   -3.6463   -0.9985    1.0711 C   0  0  0  0  0  0  0  0  0  0  0  0
   -2.9542   -0.8071   -0.0782 C   0  0  0  0  0  0  0  0  0  0  0  0
   -1.5716   -0.8395   -0.0856 C   0  0  0  0  0  0  0  0  0  0  0  0
   -0.7917   -1.0604    1.0238 C   0  0  0  0  0  0  0  0  0  0  0  0
    0.6095   -1.1309    1.0817 N   0  0  0  0  0  0  0  0  0  0  0  0
    1.4686   -1.3760    0.0128 C   0  0  0  0  0  0  0  0  0  0  0  0
    0.9976   -1.5745   -1.1707 O   0  0  0  0  0  0  0  0  0  0  0  0
    2.8763   -1.4322    0.0975 N   0  0  0  0  0  0  0  0  0  0  0  0
    3.6603   -1.6974   -1.0848 C   0  0  0  0  0  0  0  0  0  0  0  0
    4.5143   -0.4758   -1.3459 C   0  0  0  0  0  0  0  0  0  0  0  0
    5.1836   -0.0651   -0.1509 N   0  0  0  0  0  0  0  0  0  0  0  0
    4.6427   -0.1404    1.1653 C   0  0  0  0  0  0  0  0  0  0  0  0
    3.5782   -1.2352    1.3221 C   0  0  0  0  0  0  0  0  0  0  0  0
    6.5115    0.4685   -0.2867 C   0  0  0  0  0  0  0  0  0  0  0  0
    7.5059   -0.2123    0.3845 C   0  0  0  0  0  0  0  0  0  0  0  0
    8.7912    0.2502    0.2929 C   0  0  0  0  0  0  0  0  0  0  0  0
    9.0444    1.3782   -0.4661 C   0  0  0  0  0  0  0  0  0  0  0  0
   10.4592    1.8430   -0.5355 C   0  0  0  0  0  0  0  0  0  0  0  0
    8.0361    2.0426   -1.1281 C   0  0  0  0  0  0  0  0  0  0  0  0
    6.7197    1.5848   -1.0456 C   0  0  0  0  0  0  0  0  0  0  0  0
    5.7203    2.2224   -1.6872 F   0  0  0  0  0  0  0  0  0  0  0  0
   -1.5481   -1.2556    2.2051 C   0  0  0  0  0  0  0  0  0  0  0  0
   -2.9066   -1.2252    2.2228 C   0  0  0  0  0  0  0  0  0  0  0  0
   -7.7329    0.6641   -0.4135 C   0  0  0  0  0  0  0  0  0  0  0  0
   -7.2075    1.2887   -1.5084 C   0  0  0  0  0  0  0  0  0  0  0  0
   -7.6432    2.5596   -1.8775 C   0  0  0  0  0  0  0  0  0  0  0  0
   -8.6105    3.1860   -1.1296 C   0  0  0  0  0  0  0  0  0  0  0  0
   -9.0412    4.4187   -1.4778 F   0  0  0  0  0  0  0  0  0  0  0  0
   -9.1381    2.5475   -0.0222 C   0  0  0  0  0  0  0  0  0  0  0  0
  -10.0959    3.1569    0.7258 F   0  0  0  0  0  0  0  0  0  0  0  0
   -8.7007    1.2906    0.3348 C   0  0  0  0  0  0  0  0  0  0  0  0
   -8.0202   -2.6777   -0.3476 H   0  0  0  0  0  0  0  0  0  0  0  0
   -8.7713   -1.3727   -1.3597 H   0  0  0  0  0  0  0  0  0  0  0  0
   -7.0864   -1.9335   -1.7285 H   0  0  0  0  0  0  0  0  0  0  0  0
   -7.5872   -0.8964    1.0586 H   0  0  0  0  0  0  0  0  0  0  0  0
   -5.4291   -0.5441   -0.9776 H   0  0  0  0  0  0  0  0  0  0  0  0
   -3.4592   -0.6274   -1.0036 H   0  0  0  0  0  0  0  0  0  0  0  0
   -1.0604   -0.6604   -1.0388 H   0  0  0  0  0  0  0  0  0  0  0  0
    1.0368   -0.9791    2.0319 H   0  0  0  0  0  0  0  0  0  0  0  0
    3.0461   -1.9585   -1.9613 H   0  0  0  0  0  0  0  0  0  0  0  0
    4.3833   -2.5332   -0.8743 H   0  0  0  0  0  0  0  0  0  0  0  0
    5.2151   -0.7517   -2.1622 H   0  0  0  0  0  0  0  0  0  0  0  0
    3.8443    0.2992   -1.7678 H   0  0  0  0  0  0  0  0  0  0  0  0
    5.3886   -0.3408    1.9618 H   0  0  0  0  0  0  0  0  0  0  0  0
    4.1471    0.8296    1.4652 H   0  0  0  0  0  0  0  0  0  0  0  0
    4.1413   -2.1808    1.6111 H   0  0  0  0  0  0  0  0  0  0  0  0
    2.9526   -0.9841    2.1766 H   0  0  0  0  0  0  0  0  0  0  0  0
    7.2860   -1.1053    0.9816 H   0  0  0  0  0  0  0  0  0  0  0  0
    9.5675   -0.2914    0.8242 H   0  0  0  0  0  0  0  0  0  0  0  0
   11.0686    1.0871   -1.0553 H   0  0  0  0  0  0  0  0  0  0  0  0
   10.8104    1.9563    0.5241 H   0  0  0  0  0  0  0  0  0  0  0  0
   10.4708    2.8133   -1.0664 H   0  0  0  0  0  0  0  0  0  0  0  0
    8.2621    2.9060   -1.7030 H   0  0  0  0  0  0  0  0  0  0  0  0
   -0.9557   -1.4360    3.1168 H   0  0  0  0  0  0  0  0  0  0  0  0
   -3.4433   -1.3792    3.1469 H   0  0  0  0  0  0  0  0  0  0  0  0
   -6.4439    0.8138   -2.1128 H   0  0  0  0  0  0  0  0  0  0  0  0
   -7.2414    3.0753   -2.7419 H   0  0  0  0  0  0  0  0  0  0  0  0
   -9.1445    0.8195    1.2195 H   0  0  0  0  0  0  0  0  0  0  0  0
  1  2  1  0
  2  3  1  0
  3  4  1  0
  4  5  2  0
  4  6  1  0
  6  7  2  0
  7  8  1  0
  8  9  2  0
  9 10  1  0
 10 11  1  0
 11 12  2  0
 11 13  1  0
 13 14  1  0
 14 15  1  0
 15 16  1  0
 16 17  1  0
 17 18  1  0
 16 19  1  0
 19 20  2  0
 20 21  1  0
 21 22  2  0
 22 23  1  0
 22 24  1  0
 24 25  2  0
 25 26  1  0
  9 27  1  0
 27 28  2  0
  2 29  1  0
 29 30  2  0
 30 31  1  0
 31 32  2  0
 32 33  1  0
 32 34  1  0
 34 35  1  0
 34 36  2  0
 28  6  1  0
 36 29  1  0
 18 13  1  0
 25 19  1  0
  1 37  1  0
  1 38  1  0
  1 39  1  0
  2 40  1  1
  3 41  1  0
  7 42  1  0
  8 43  1  0
 10 44  1  0
 14 45  1  0
 14 46  1  0
 15 47  1  0
 15 48  1  0
 17 49  1  0
 17 50  1  0
 18 51  1  0
 18 52  1  0
 20 53  1  0
 21 54  1  0
 23 55  1  0
 23 56  1  0
 23 57  1  0
 24 58  1  0
 27 59  1  0
 28 60  1  0
 30 61  1  0
 31 62  1  0
 36 63  1  0
M  END
$$$$
[H]c1nc(N2C([H])([H])C([H])([H])N(c3nc4c([H])c([H])c(C(F)(F)F)c([H])c4s3)[C@]([H])(C([H])([H])[H])C2([H])[H])nc(-c2c([H])c([H])c(F)c([H])c2[H])c1F
     RDKit          3D

 52 56  0  0  0  0  0  0  0  0999 V2000
   -1.4744   -2.8490   -0.7992 C   0  0  0  0  0  0  0  0  0  0  0  0
   -0.9788   -1.4945   -1.3032 C   0  0  2  0  0  0  0  0  0  0  0  0
    0.5181   -1.6515   -1.5539 C   0  0  0  0  0  0  0  0  0  0  0  0
    1.2820   -0.7168   -0.8394 N   0  0  0  0  0  0  0  0  0  0  0  0
    0.7719    0.6895   -0.7812 C   0  0  0  0  0  0  0  0  0  0  0  0
   -0.3875    0.5001    0.2243 C   0  0  0  0  0  0  0  0  0  0  0  0
   -1.3290   -0.4149   -0.4508 N   0  0  0  0  0  0  0  0  0  0  0  0
   -2.7017   -0.1070   -0.2277 C   0  0  0  0  0  0  0  0  0  0  0  0
   -3.7388   -0.2410   -1.0377 N   0  0  0  0  0  0  0  0  0  0  0  0
   -4.9261    0.1194   -0.6416 C   0  0  0  0  0  0  0  0  0  0  0  0
   -6.1027    0.0685   -1.4297 C   0  0  0  0  0  0  0  0  0  0  0  0
   -7.2634    0.5053   -0.9080 C   0  0  0  0  0  0  0  0  0  0  0  0
   -7.4170    1.0107    0.3564 C   0  0  0  0  0  0  0  0  0  0  0  0
   -6.2903    1.0746    1.1431 C   0  0  0  0  0  0  0  0  0  0  0  0
   -5.0686    0.6237    0.6144 C   0  0  0  0  0  0  0  0  0  0  0  0
   -3.4170    0.5572    1.1675 S   0  0  0  0  0  0  0  0  0  0  0  0
   -8.7089    1.5765    0.8643 C   0  0  0  0  0  0  0  0  0  0  0  0
   -8.7773    2.9116    0.4008 F   0  0  0  0  0  0  0  0  0  0  0  0
   -9.7856    0.9434    0.3278 F   0  0  0  0  0  0  0  0  0  0  0  0
   -8.7628    1.5834    2.2205 F   0  0  0  0  0  0  0  0  0  0  0  0
    2.4378   -0.8974   -0.0490 C   0  0  0  0  0  0  0  0  0  0  0  0
    2.3580   -1.7759    0.9987 N   0  0  0  0  0  0  0  0  0  0  0  0
    3.3810   -1.8783    1.7912 C   0  0  0  0  0  0  0  0  0  0  0  0
    4.5468   -1.1264    1.5916 C   0  0  0  0  0  0  0  0  0  0  0  0
    5.5375   -1.2870    2.5129 F   0  0  0  0  0  0  0  0  0  0  0  0
    4.6488   -0.2579    0.5573 C   0  0  0  0  0  0  0  0  0  0  0  0
    3.5432   -0.1797   -0.2459 N   0  0  0  0  0  0  0  0  0  0  0  0
    5.8566    0.5108    0.2182 C   0  0  0  0  0  0  0  0  0  0  0  0
    5.7308    1.7549   -0.3810 C   0  0  0  0  0  0  0  0  0  0  0  0
    6.8604    2.5087   -0.7052 C   0  0  0  0  0  0  0  0  0  0  0  0
    8.0532    1.9497   -0.3852 C   0  0  0  0  0  0  0  0  0  0  0  0
    9.1704    2.7108   -0.7101 F   0  0  0  0  0  0  0  0  0  0  0  0
    8.2356    0.7321    0.2069 C   0  0  0  0  0  0  0  0  0  0  0  0
    7.0977   -0.0094    0.5136 C   0  0  0  0  0  0  0  0  0  0  0  0
   -2.4389   -3.1110   -1.1904 H   0  0  0  0  0  0  0  0  0  0  0  0
   -0.7758   -3.6604   -1.1590 H   0  0  0  0  0  0  0  0  0  0  0  0
   -1.4140   -2.8805    0.3155 H   0  0  0  0  0  0  0  0  0  0  0  0
   -1.5145   -1.3256   -2.2778 H   0  0  0  0  0  0  0  0  0  0  0  0
    0.6774   -1.4578   -2.6614 H   0  0  0  0  0  0  0  0  0  0  0  0
    0.8499   -2.6983   -1.4013 H   0  0  0  0  0  0  0  0  0  0  0  0
    1.5038    1.3703   -0.3948 H   0  0  0  0  0  0  0  0  0  0  0  0
    0.2986    0.8892   -1.7409 H   0  0  0  0  0  0  0  0  0  0  0  0
   -0.8234    1.4700    0.3968 H   0  0  0  0  0  0  0  0  0  0  0  0
    0.0063   -0.0376    1.0736 H   0  0  0  0  0  0  0  0  0  0  0  0
   -6.1012   -0.3074   -2.4524 H   0  0  0  0  0  0  0  0  0  0  0  0
   -8.1919    0.4601   -1.5065 H   0  0  0  0  0  0  0  0  0  0  0  0
   -6.2452    1.4652    2.1501 H   0  0  0  0  0  0  0  0  0  0  0  0
    3.3265   -2.5829    2.6461 H   0  0  0  0  0  0  0  0  0  0  0  0
    4.7444    2.1532   -0.6157 H   0  0  0  0  0  0  0  0  0  0  0  0
    6.7277    3.4607   -1.1860 H   0  0  0  0  0  0  0  0  0  0  0  0
    9.2158    0.3407    0.4761 H   0  0  0  0  0  0  0  0  0  0  0  0
    7.2547   -0.9920    0.9724 H   0  0  0  0  0  0  0  0  0  0  0  0
  1  2  1  0
  2  3  1  0
  3  4  1  0
  4  5  1  0
  5  6  1  0
  6  7  1  0
  7  8  1  0
  8  9  2  0
  9 10  1  0
 10 11  2  0
 11 12  1  0
 12 13  2  0
 13 14  1  0
 14 15  2  0
 15 16  1  0
 13 17  1  0
 17 18  1  0
 17 19  1  0
 17 20  1  0
  4 21  1  0
 21 22  2  0
 22 23  1  0
 23 24  2  0
 24 25  1  0
 24 26  1  0
 26 27  2  0
 26 28  1  0
 28 29  2  0
 29 30  1  0
 30 31  2  0
 31 32  1  0
 31 33  1  0
 33 34  2  0
  7  2  1  0
 16  8  1  0
 27 21  1  0
 34 28  1  0
 15 10  1  0
  1 35  1  0
  1 36  1  0
  1 37  1  0
  2 38  1  6
  3 39  1  0
  3 40  1  0
  5 41  1  0
  5 42  1  0
  6 43  1  0
  6 44  1  0
 11 45  1  0
 12 46  1  0
 14 47  1  0
 23 48  1  0
 29 49  1  0
 30 50  1  0
 33 51  1  0
 34 52  1  0
M  END
$$$$
[H]c1nc([H])c(-c2nc3c([H])c([H])c(C(F)(F)F)c([H])c3c(=O)n2-c2c([H])c([H])c(F)c([H])c2[H])c([H])c1[H]
     RDKit          3D

 39 42  0  0  0  0  0  0  0  0999 V2000
   -3.0218    5.2562    0.8513 F   0  0  0  0  0  0  0  0  0  0  0  0
   -2.3792    4.0974    0.5486 C   0  0  0  0  0  0  0  0  0  0  0  0
   -2.3544    3.5906   -0.7529 C   0  0  0  0  0  0  0  0  0  0  0  0
   -1.6744    2.4029   -0.9990 C   0  0  0  0  0  0  0  0  0  0  0  0
   -1.0343    1.7047   -0.0580 C   0  0  0  0  0  0  0  0  0  0  0  0
   -1.0696    2.2214    1.2476 C   0  0  0  0  0  0  0  0  0  0  0  0
   -1.7143    3.3763    1.5467 C   0  0  0  0  0  0  0  0  0  0  0  0
   -0.2528    0.5382   -0.2554 N   0  0  0  0  0  0  0  0  0  0  0  0
   -0.7251   -0.6862   -0.3275 C   0  0  0  0  0  0  0  0  0  0  0  0
    0.2452   -1.7028   -0.3929 N   0  0  0  0  0  0  0  0  0  0  0  0
    1.5436   -1.4779   -0.3800 C   0  0  0  0  0  0  0  0  0  0  0  0
    2.4579   -2.5333   -0.3936 C   0  0  0  0  0  0  0  0  0  0  0  0
    3.8017   -2.2695   -0.3244 C   0  0  0  0  0  0  0  0  0  0  0  0
    4.3096   -0.9960   -0.2385 C   0  0  0  0  0  0  0  0  0  0  0  0
    3.3770    0.0299   -0.2350 C   0  0  0  0  0  0  0  0  0  0  0  0
    1.9909   -0.2052   -0.3039 C   0  0  0  0  0  0  0  0  0  0  0  0
    1.1040    0.8159   -0.2416 C   0  0  0  0  0  0  0  0  0  0  0  0
    1.4729    1.9842   -0.1737 O   0  0  0  0  0  0  0  0  0  0  0  0
    5.7563   -0.6864   -0.1469 C   0  0  0  0  0  0  0  0  0  0  0  0
    6.1868   -0.9609    1.1533 F   0  0  0  0  0  0  0  0  0  0  0  0
    5.9921    0.6321   -0.4307 F   0  0  0  0  0  0  0  0  0  0  0  0
    6.5248   -1.4305   -1.0331 F   0  0  0  0  0  0  0  0  0  0  0  0
   -2.0790   -1.1526   -0.1830 C   0  0  0  0  0  0  0  0  0  0  0  0
   -2.2806   -2.2950    0.6266 C   0  0  0  0  0  0  0  0  0  0  0  0
   -3.4801   -2.8950    0.8082 C   0  0  0  0  0  0  0  0  0  0  0  0
   -4.6105   -2.3591    0.1602 C   0  0  0  0  0  0  0  0  0  0  0  0
   -4.4143   -1.2930   -0.6002 N   0  0  0  0  0  0  0  0  0  0  0  0
   -3.1893   -0.6849   -0.7876 C   0  0  0  0  0  0  0  0  0  0  0  0
   -2.8736    4.1501   -1.5342 H   0  0  0  0  0  0  0  0  0  0  0  0
   -1.7195    2.0573   -2.0578 H   0  0  0  0  0  0  0  0  0  0  0  0
   -0.5743    1.6911    2.0359 H   0  0  0  0  0  0  0  0  0  0  0  0
   -1.7640    3.8168    2.5289 H   0  0  0  0  0  0  0  0  0  0  0  0
    2.0687   -3.5313   -0.4935 H   0  0  0  0  0  0  0  0  0  0  0  0
    4.5482   -3.0981   -0.3393 H   0  0  0  0  0  0  0  0  0  0  0  0
    3.7335    1.0357   -0.1821 H   0  0  0  0  0  0  0  0  0  0  0  0
   -1.4152   -2.7008    1.1245 H   0  0  0  0  0  0  0  0  0  0  0  0
   -3.6665   -3.7719    1.4263 H   0  0  0  0  0  0  0  0  0  0  0  0
   -5.5850   -2.7999    0.2846 H   0  0  0  0  0  0  0  0  0  0  0  0
   -3.2355    0.1294   -1.4779 H   0  0  0  0  0  0  0  0  0  0  0  0
  1  2  1  0
  2  3  2  0
  3  4  1  0
  4  5  2  0
  5  6  1  0
  6  7  2  0
  5  8  1  0
  8  9  1  0
  9 10  2  0
 10 11  1  0
 11 12  2  0
 12 13  1  0
 13 14  2  0
 14 15  1  0
 15 16  2  0
 16 17  1  0
 17 18  2  0
 14 19  1  0
 19 20  1  0
 19 21  1  0
 19 22  1  0
  9 23  1  0
 23 24  2  0
 24 25  1  0
 25 26  2  0
 26 27  1  0
 27 28  2  0
  7  2  1  0
 17  8  1  0
 28 23  1  0
 16 11  1  0
  3 29  1  0
  4 30  1  0
  6 31  1  0
  7 32  1  0
 12 33  1  0
 13 34  1  0
 15 35  1  0
 24 36  1  0
 25 37  1  0
 26 38  1  0
 28 39  1  0
M  END
$$$$
[H]c1c([H])c([H])c(N(C(=O)OC([H])([H])[H])C([H])([H])[H])c(-c2c([H])c([H])c3c(N([H])C(=O)C([H])([H])Oc4c([H])c([H])c(Cl)c([H])c4[H])c([H])c([H])c([H])c3c2[H])c1[H]
     RDKit          3D

 57 60  0  0  0  0  0  0  0  0999 V2000
   -2.4282    0.1640    3.2658 C   0  0  0  0  0  0  0  0  0  0  0  0
   -3.2096    0.1837    2.0728 O   0  0  0  0  0  0  0  0  0  0  0  0
   -4.0297   -0.8348    1.6921 C   0  0  0  0  0  0  0  0  0  0  0  0
   -4.0653   -1.8467    2.4802 O   0  0  0  0  0  0  0  0  0  0  0  0
   -4.8274   -0.8921    0.5484 N   0  0  0  0  0  0  0  0  0  0  0  0
   -5.6926   -2.0190    0.3171 C   0  0  0  0  0  0  0  0  0  0  0  0
   -4.8537    0.1615   -0.4161 C   0  0  0  0  0  0  0  0  0  0  0  0
   -6.0460    0.8533   -0.6088 C   0  0  0  0  0  0  0  0  0  0  0  0
   -6.1576    1.8668   -1.5070 C   0  0  0  0  0  0  0  0  0  0  0  0
   -5.0643    2.2439   -2.2693 C   0  0  0  0  0  0  0  0  0  0  0  0
   -3.9121    1.5608   -2.0688 C   0  0  0  0  0  0  0  0  0  0  0  0
   -3.7659    0.5041   -1.1436 C   0  0  0  0  0  0  0  0  0  0  0  0
   -2.4504   -0.1335   -1.0385 C   0  0  0  0  0  0  0  0  0  0  0  0
   -1.3354    0.7015   -1.0053 C   0  0  0  0  0  0  0  0  0  0  0  0
   -0.0364    0.1995   -0.9315 C   0  0  0  0  0  0  0  0  0  0  0  0
    0.2080   -1.1451   -0.8882 C   0  0  0  0  0  0  0  0  0  0  0  0
    1.5355   -1.6212   -0.8251 C   0  0  0  0  0  0  0  0  0  0  0  0
    2.5871   -0.7105   -0.7007 N   0  0  0  0  0  0  0  0  0  0  0  0
    3.5981    0.1260   -0.5921 C   0  0  0  0  0  0  0  0  0  0  0  0
    4.8399   -0.1910   -0.8399 O   0  0  0  0  0  0  0  0  0  0  0  0
    3.4481    1.5809   -0.1584 C   0  0  0  0  0  0  0  0  0  0  0  0
    4.6697    2.1642   -0.0421 O   0  0  0  0  0  0  0  0  0  0  0  0
    5.7145    1.9263    0.7922 C   0  0  0  0  0  0  0  0  0  0  0  0
    5.7248    0.9873    1.7848 C   0  0  0  0  0  0  0  0  0  0  0  0
    6.8387    0.8274    2.5733 C   0  0  0  0  0  0  0  0  0  0  0  0
    7.9509    1.6158    2.3630 C   0  0  0  0  0  0  0  0  0  0  0  0
    9.3632    1.3991    3.3692 Cl  0  0  0  0  0  0  0  0  0  0  0  0
    7.9475    2.5529    1.3762 C   0  0  0  0  0  0  0  0  0  0  0  0
    6.8478    2.7306    0.5764 C   0  0  0  0  0  0  0  0  0  0  0  0
    1.6581   -2.9946   -0.7984 C   0  0  0  0  0  0  0  0  0  0  0  0
    0.5649   -3.8582   -0.8304 C   0  0  0  0  0  0  0  0  0  0  0  0
   -0.6840   -3.3278   -0.8913 C   0  0  0  0  0  0  0  0  0  0  0  0
   -0.8886   -1.9622   -0.9213 C   0  0  0  0  0  0  0  0  0  0  0  0
   -2.2033   -1.4680   -0.9960 C   0  0  0  0  0  0  0  0  0  0  0  0
   -2.6380    1.0434    3.9232 H   0  0  0  0  0  0  0  0  0  0  0  0
   -2.6036   -0.7528    3.8632 H   0  0  0  0  0  0  0  0  0  0  0  0
   -1.3751    0.2767    2.9201 H   0  0  0  0  0  0  0  0  0  0  0  0
   -6.4872   -1.7476   -0.4065 H   0  0  0  0  0  0  0  0  0  0  0  0
   -5.1257   -2.8992   -0.0684 H   0  0  0  0  0  0  0  0  0  0  0  0
   -6.2190   -2.2887    1.2800 H   0  0  0  0  0  0  0  0  0  0  0  0
   -6.9115    0.5678   -0.0185 H   0  0  0  0  0  0  0  0  0  0  0  0
   -7.0746    2.4331   -1.6796 H   0  0  0  0  0  0  0  0  0  0  0  0
   -5.1112    3.0434   -2.9947 H   0  0  0  0  0  0  0  0  0  0  0  0
   -3.0211    1.8272   -2.6487 H   0  0  0  0  0  0  0  0  0  0  0  0
   -1.4754    1.7713   -1.0370 H   0  0  0  0  0  0  0  0  0  0  0  0
    0.8068    0.8607   -0.9219 H   0  0  0  0  0  0  0  0  0  0  0  0
    3.3761   -1.5804   -1.4072 H   0  0  0  0  0  0  0  0  0  0  0  0
    2.9306    1.5004    0.8416 H   0  0  0  0  0  0  0  0  0  0  0  0
    2.8329    2.1171   -0.8976 H   0  0  0  0  0  0  0  0  0  0  0  0
    4.8630    0.3613    1.9731 H   0  0  0  0  0  0  0  0  0  0  0  0
    6.8176    0.0694    3.3610 H   0  0  0  0  0  0  0  0  0  0  0  0
    8.8472    3.1599    1.2363 H   0  0  0  0  0  0  0  0  0  0  0  0
    6.8503    3.4748   -0.2052 H   0  0  0  0  0  0  0  0  0  0  0  0
    2.6514   -3.4639   -0.7366 H   0  0  0  0  0  0  0  0  0  0  0  0
    0.7314   -4.9171   -0.8068 H   0  0  0  0  0  0  0  0  0  0  0  0
   -1.5355   -3.9928   -0.9124 H   0  0  0  0  0  0  0  0  0  0  0  0
   -2.9756   -2.2092   -1.0260 H   0  0  0  0  0  0  0  0  0  0  0  0
  1  2  1  0
  2  3  1  0
  3  4  2  0
  3  5  1  0
  5  6  1  0
  5  7  1  0
  7  8  2  0
  8  9  1  0
  9 10  2  0
 10 11  1  0
 11 12  2  0
 12 13  1  0
 13 14  2  0
 14 15  1  0
 15 16  2  0
 16 17  1  0
 17 18  1  0
 18 19  1  0
 19 20  2  0
 19 21  1  0
 21 22  1  0
 22 23  1  0
 23 24  2  0
 24 25  1  0
 25 26  2  0
 26 27  1  0
 26 28  1  0
 28 29  2  0
 17 30  2  0
 30 31  1  0
 31 32  2  0
 32 33  1  0
 33 34  2  0
 12  7  1  0
 34 13  1  0
 33 16  1  0
 29 23  1  0
  1 35  1  0
  1 36  1  0
  1 37  1  0
  6 38  1  0
  6 39  1  0
  6 40  1  0
  8 41  1  0
  9 42  1  0
 10 43  1  0
 11 44  1  0
 14 45  1  0
 15 46  1  0
 18 47  1  0
 21 48  1  0
 21 49  1  0
 24 50  1  0
 25 51  1  0
 28 52  1  0
 29 53  1  0
 30 54  1  0
 31 55  1  0
 32 56  1  0
 34 57  1  0
M  END
$$$$
[H]c1c([H])c(N([H])c2nc3c([H])c([H])c(C(F)(F)F)c([H])c3o2)c(F)c([H])c1C(=O)N1C([H])([H])C([H])([H])C2(C([H])([H])OC2([H])[H])C([H])([H])C1([H])[H]
     RDKit          3D

 51 55  0  0  0  0  0  0  0  0999 V2000
   -1.5562   -2.1251    3.1929 F   0  0  0  0  0  0  0  0  0  0  0  0
   -0.9130   -1.5302    2.1523 C   0  0  0  0  0  0  0  0  0  0  0  0
    0.3699   -1.0260    2.2597 C   0  0  0  0  0  0  0  0  0  0  0  0
    1.0446   -0.4195    1.1817 C   0  0  0  0  0  0  0  0  0  0  0  0
    0.3526   -0.3554    0.0127 C   0  0  0  0  0  0  0  0  0  0  0  0
   -0.9517   -0.8562   -0.1201 C   0  0  0  0  0  0  0  0  0  0  0  0
   -1.6001   -1.4390    0.9269 C   0  0  0  0  0  0  0  0  0  0  0  0
   -2.8526   -2.0763    0.8819 N   0  0  0  0  0  0  0  0  0  0  0  0
   -4.0787   -1.4620    0.5019 C   0  0  0  0  0  0  0  0  0  0  0  0
   -5.2156   -2.1335    0.1866 N   0  0  0  0  0  0  0  0  0  0  0  0
   -6.2087   -1.2700   -0.1025 C   0  0  0  0  0  0  0  0  0  0  0  0
   -7.5225   -1.4023   -0.4804 C   0  0  0  0  0  0  0  0  0  0  0  0
   -8.3026   -0.2856   -0.7162 C   0  0  0  0  0  0  0  0  0  0  0  0
   -7.7769    0.9597   -0.5771 C   0  0  0  0  0  0  0  0  0  0  0  0
   -6.4389    1.0829   -0.1925 C   0  0  0  0  0  0  0  0  0  0  0  0
   -5.6432   -0.0263    0.0447 C   0  0  0  0  0  0  0  0  0  0  0  0
   -4.3739   -0.2062    0.4051 O   0  0  0  0  0  0  0  0  0  0  0  0
   -8.6054    2.1655   -0.7492 C   0  0  0  0  0  0  0  0  0  0  0  0
   -9.4212    2.3552    0.3990 F   0  0  0  0  0  0  0  0  0  0  0  0
   -9.4388    2.0293   -1.8570 F   0  0  0  0  0  0  0  0  0  0  0  0
   -7.8878    3.2931   -0.8758 F   0  0  0  0  0  0  0  0  0  0  0  0
    2.2995    0.1911    1.4290 C   0  0  0  0  0  0  0  0  0  0  0  0
    2.3556    0.7171    2.6861 O   0  0  0  0  0  0  0  0  0  0  0  0
    3.4704    0.3558    0.6692 N   0  0  0  0  0  0  0  0  0  0  0  0
    3.7380   -0.2013   -0.6218 C   0  0  0  0  0  0  0  0  0  0  0  0
    5.2034   -0.7128   -0.6150 C   0  0  0  0  0  0  0  0  0  0  0  0
    6.1621    0.4435   -0.3939 C   0  0  0  0  0  0  0  0  0  0  0  0
    7.4515    0.0778    0.2830 C   0  0  0  0  0  0  0  0  0  0  0  0
    7.9835   -0.1991   -0.9990 O   0  0  0  0  0  0  0  0  0  0  0  0
    7.1032    0.7390   -1.5407 C   0  0  0  0  0  0  0  0  0  0  0  0
    5.4765    1.6304    0.2098 C   0  0  0  0  0  0  0  0  0  0  0  0
    4.5128    1.1846    1.2587 C   0  0  0  0  0  0  0  0  0  0  0  0
    0.9104   -1.0927    3.2157 H   0  0  0  0  0  0  0  0  0  0  0  0
    0.7557    0.0968   -0.9112 H   0  0  0  0  0  0  0  0  0  0  0  0
   -1.4554   -0.7826   -1.0976 H   0  0  0  0  0  0  0  0  0  0  0  0
   -2.8699   -3.1253    1.1249 H   0  0  0  0  0  0  0  0  0  0  0  0
   -7.9688   -2.3870   -0.6063 H   0  0  0  0  0  0  0  0  0  0  0  0
   -9.3397   -0.4230   -1.0471 H   0  0  0  0  0  0  0  0  0  0  0  0
   -5.9865    2.0665   -0.0631 H   0  0  0  0  0  0  0  0  0  0  0  0
    3.1462   -1.1526   -0.7995 H   0  0  0  0  0  0  0  0  0  0  0  0
    3.6760    0.4846   -1.4805 H   0  0  0  0  0  0  0  0  0  0  0  0
    5.3515   -1.2831   -1.5325 H   0  0  0  0  0  0  0  0  0  0  0  0
    5.2730   -1.3766    0.2655 H   0  0  0  0  0  0  0  0  0  0  0  0
    7.9876    0.9585    0.6959 H   0  0  0  0  0  0  0  0  0  0  0  0
    7.3703   -0.8131    0.9152 H   0  0  0  0  0  0  0  0  0  0  0  0
    6.7063    0.4528   -2.5365 H   0  0  0  0  0  0  0  0  0  0  0  0
    7.5291    1.7528   -1.4371 H   0  0  0  0  0  0  0  0  0  0  0  0
    6.2180    2.3516    0.6092 H   0  0  0  0  0  0  0  0  0  0  0  0
    4.9148    2.1510   -0.5848 H   0  0  0  0  0  0  0  0  0  0  0  0
    4.0129    2.0790    1.7395 H   0  0  0  0  0  0  0  0  0  0  0  0
    5.0328    0.5444    1.9756 H   0  0  0  0  0  0  0  0  0  0  0  0
  1  2  1  0
  2  3  2  0
  3  4  1  0
  4  5  2  0
  5  6  1  0
  6  7  2  0
  7  8  1  0
  8  9  1  0
  9 10  2  0
 10 11  1  0
 11 12  2  0
 12 13  1  0
 13 14  2  0
 14 15  1  0
 15 16  2  0
 16 17  1  0
 14 18  1  0
 18 19  1  0
 18 20  1  0
 18 21  1  0
  4 22  1  0
 22 23  2  0
 22 24  1  0
 24 25  1  0
 25 26  1  0
 26 27  1  0
 27 28  1  0
 28 29  1  0
 29 30  1  0
 27 31  1  0
 31 32  1  0
  7  2  1  0
 17  9  1  0
 32 24  1  0
 16 11  1  0
 30 27  1  0
  3 33  1  0
  5 34  1  0
  6 35  1  0
  8 36  1  0
 12 37  1  0
 13 38  1  0
 15 39  1  0
 25 40  1  0
 25 41  1  0
 26 42  1  0
 26 43  1  0
 28 44  1  0
 28 45  1  0
 30 46  1  0
 30 47  1  0
 31 48  1  0
 31 49  1  0
 32 50  1  0
 32 51  1  0
M  END
$$$$
[H]c1c([H])c(Br)c(C([H])([H])[H])c(-c2c([H])c([H])c(C([H])([H])N([H])C(=O)c3c([H])c(C4([H])C([H])([H])C([H])([H])C([H])([H])C([H])([H])C([H])([H])C4([H])[H])nn3C([H])([H])[H])c([H])c2[H])c1[H]
     RDKit          3D

 61 64  0  0  0  0  0  0  0  0999 V2000
    7.5087   -0.0927    1.2769 C   0  0  0  0  0  0  0  0  0  0  0  0
    7.2070   -0.1737   -0.1778 C   0  0  0  0  0  0  0  0  0  0  0  0
    8.2339    0.0288   -1.1121 C   0  0  0  0  0  0  0  0  0  0  0  0
    9.9654    0.4156   -0.4520 Br  0  0  0  0  0  0  0  0  0  0  0  0
    7.9760   -0.0539   -2.4576 C   0  0  0  0  0  0  0  0  0  0  0  0
    6.7174   -0.3347   -2.9308 C   0  0  0  0  0  0  0  0  0  0  0  0
    5.6995   -0.5357   -2.0288 C   0  0  0  0  0  0  0  0  0  0  0  0
    5.9446   -0.4547   -0.6470 C   0  0  0  0  0  0  0  0  0  0  0  0
    4.8367   -0.6612    0.2565 C   0  0  0  0  0  0  0  0  0  0  0  0
    3.9917   -1.7593    0.1574 C   0  0  0  0  0  0  0  0  0  0  0  0
    2.9208   -1.9646    1.0025 C   0  0  0  0  0  0  0  0  0  0  0  0
    2.6685   -1.0348    2.0019 C   0  0  0  0  0  0  0  0  0  0  0  0
    1.5065   -1.3009    2.8903 C   0  0  0  0  0  0  0  0  0  0  0  0
    0.2442   -0.9374    2.2910 N   0  0  0  0  0  0  0  0  0  0  0  0
   -0.2253    0.3975    2.1722 C   0  0  0  0  0  0  0  0  0  0  0  0
    0.4845    1.3204    2.6078 O   0  0  0  0  0  0  0  0  0  0  0  0
   -1.5086    0.7094    1.5569 C   0  0  0  0  0  0  0  0  0  0  0  0
   -2.4035   -0.2010    1.0278 C   0  0  0  0  0  0  0  0  0  0  0  0
   -3.4896    0.4959    0.5449 C   0  0  0  0  0  0  0  0  0  0  0  0
   -3.2418    1.7925    0.7837 N   0  0  0  0  0  0  0  0  0  0  0  0
   -2.0677    1.9168    1.3834 N   0  0  0  0  0  0  0  0  0  0  0  0
   -1.4351    3.1635    1.8117 C   0  0  0  0  0  0  0  0  0  0  0  0
   -4.6623   -0.1424   -0.0993 C   0  0  0  0  0  0  0  0  0  0  0  0
   -5.8902    0.1803    0.7181 C   0  0  0  0  0  0  0  0  0  0  0  0
   -7.1566   -0.3041    0.0269 C   0  0  0  0  0  0  0  0  0  0  0  0
   -7.5002    0.5721   -1.1305 C   0  0  0  0  0  0  0  0  0  0  0  0
   -7.0637   -0.1026   -2.4092 C   0  0  0  0  0  0  0  0  0  0  0  0
   -5.6268   -0.5354   -2.3741 C   0  0  0  0  0  0  0  0  0  0  0  0
   -4.7713    0.3776   -1.5212 C   0  0  0  0  0  0  0  0  0  0  0  0
    3.4882    0.0558    2.1187 C   0  0  0  0  0  0  0  0  0  0  0  0
    4.5700    0.2474    1.2518 C   0  0  0  0  0  0  0  0  0  0  0  0
    8.5842   -0.4405    1.3692 H   0  0  0  0  0  0  0  0  0  0  0  0
    6.9267   -0.8133    1.8814 H   0  0  0  0  0  0  0  0  0  0  0  0
    7.5221    0.9326    1.6732 H   0  0  0  0  0  0  0  0  0  0  0  0
    8.7686    0.1025   -3.1654 H   0  0  0  0  0  0  0  0  0  0  0  0
    6.5027   -0.4026   -4.0036 H   0  0  0  0  0  0  0  0  0  0  0  0
    4.6828   -0.7616   -2.3682 H   0  0  0  0  0  0  0  0  0  0  0  0
    4.1664   -2.4927   -0.6075 H   0  0  0  0  0  0  0  0  0  0  0  0
    2.2670   -2.8301    0.9127 H   0  0  0  0  0  0  0  0  0  0  0  0
    1.5163   -2.3943    3.0881 H   0  0  0  0  0  0  0  0  0  0  0  0
    1.6427   -0.8201    3.8842 H   0  0  0  0  0  0  0  0  0  0  0  0
   -0.3763   -1.6919    1.9151 H   0  0  0  0  0  0  0  0  0  0  0  0
   -2.2456   -1.2548    1.0140 H   0  0  0  0  0  0  0  0  0  0  0  0
   -2.0597    4.0368    1.5436 H   0  0  0  0  0  0  0  0  0  0  0  0
   -0.4761    3.2796    1.2407 H   0  0  0  0  0  0  0  0  0  0  0  0
   -1.2674    3.1791    2.9045 H   0  0  0  0  0  0  0  0  0  0  0  0
   -4.5742   -1.2308   -0.1447 H   0  0  0  0  0  0  0  0  0  0  0  0
   -5.9818    1.2553    0.9090 H   0  0  0  0  0  0  0  0  0  0  0  0
   -5.8066   -0.3872    1.6669 H   0  0  0  0  0  0  0  0  0  0  0  0
   -6.9869   -1.3617   -0.2982 H   0  0  0  0  0  0  0  0  0  0  0  0
   -7.9466   -0.3108    0.7836 H   0  0  0  0  0  0  0  0  0  0  0  0
   -8.6025    0.7432   -1.2337 H   0  0  0  0  0  0  0  0  0  0  0  0
   -7.0560    1.5788   -1.0091 H   0  0  0  0  0  0  0  0  0  0  0  0
   -7.3175    0.4898   -3.3095 H   0  0  0  0  0  0  0  0  0  0  0  0
   -7.6756   -1.0444   -2.4841 H   0  0  0  0  0  0  0  0  0  0  0  0
   -5.5112   -1.5556   -1.9450 H   0  0  0  0  0  0  0  0  0  0  0  0
   -5.2509   -0.5967   -3.4212 H   0  0  0  0  0  0  0  0  0  0  0  0
   -5.0909    1.4213   -1.5338 H   0  0  0  0  0  0  0  0  0  0  0  0
   -3.7413    0.3481   -1.9476 H   0  0  0  0  0  0  0  0  0  0  0  0
    3.3029    0.7858    2.8956 H   0  0  0  0  0  0  0  0  0  0  0  0
    5.1638    1.1514    1.4207 H   0  0  0  0  0  0  0  0  0  0  0  0
  1  2  1  0
  2  3  2  0
  3  4  1  0
  3  5  1  0
  5  6  2  0
  6  7  1  0
  7  8  2  0
  8  9  1  0
  9 10  2  0
 10 11  1  0
 11 12  2  0
 12 13  1  0
 13 14  1  0
 14 15  1  0
 15 16  2  0
 15 17  1  0
 17 18  2  0
 18 19  1  0
 19 20  2  0
 20 21  1  0
 21 22  1  0
 19 23  1  0
 23 24  1  0
 24 25  1  0
 25 26  1  0
 26 27  1  0
 27 28  1  0
 28 29  1  0
 12 30  1  0
 30 31  2  0
  8  2  1  0
 31  9  1  0
 21 17  1  0
 29 23  1  0
  1 32  1  0
  1 33  1  0
  1 34  1  0
  5 35  1  0
  6 36  1  0
  7 37  1  0
 10 38  1  0
 11 39  1  0
 13 40  1  0
 13 41  1  0
 14 42  1  0
 18 43  1  0
 22 44  1  0
 22 45  1  0
 22 46  1  0
 23 47  1  0
 24 48  1  0
 24 49  1  0
 25 50  1  0
 25 51  1  0
 26 52  1  0
 26 53  1  0
 27 54  1  0
 27 55  1  0
 28 56  1  0
 28 57  1  0
 29 58  1  0
 29 59  1  0
 30 60  1  0
 31 61  1  0
M  END
$$$$
[H]c1nc([H])c2c([H])c([H])c([H])c(N([H])C(=O)N([H])c3c([H])c(C(C([H])([H])[H])(C([H])([H])[H])C([H])([H])[H])c([H])c([H])c3C([H])([H])[H])c2c1[H]
     RDKit          3D

 48 50  0  0  0  0  0  0  0  0999 V2000
   -0.8666    2.3481    3.0114 C   0  0  0  0  0  0  0  0  0  0  0  0
   -1.7479    1.5965    2.0695 C   0  0  0  0  0  0  0  0  0  0  0  0
   -3.0956    1.6790    2.2165 C   0  0  0  0  0  0  0  0  0  0  0  0
   -3.9556    1.0058    1.3743 C   0  0  0  0  0  0  0  0  0  0  0  0
   -3.4835    0.2259    0.3542 C   0  0  0  0  0  0  0  0  0  0  0  0
   -2.1021    0.1379    0.1989 C   0  0  0  0  0  0  0  0  0  0  0  0
   -1.2161    0.8063    1.0344 C   0  0  0  0  0  0  0  0  0  0  0  0
    0.1756    0.7747    0.9491 N   0  0  0  0  0  0  0  0  0  0  0  0
    0.9631    0.0467    0.0011 C   0  0  0  0  0  0  0  0  0  0  0  0
    0.4106   -0.6426   -0.8486 O   0  0  0  0  0  0  0  0  0  0  0  0
    2.3852    0.1223    0.0441 N   0  0  0  0  0  0  0  0  0  0  0  0
    3.3125   -0.5089   -0.7798 C   0  0  0  0  0  0  0  0  0  0  0  0
    3.0176   -1.4326   -1.7541 C   0  0  0  0  0  0  0  0  0  0  0  0
    4.0079   -2.0257   -2.5140 C   0  0  0  0  0  0  0  0  0  0  0  0
    5.3095   -1.7338   -2.3439 C   0  0  0  0  0  0  0  0  0  0  0  0
    5.6537   -0.8033   -1.3678 C   0  0  0  0  0  0  0  0  0  0  0  0
    7.0066   -0.4954   -1.1904 C   0  0  0  0  0  0  0  0  0  0  0  0
    7.3892    0.3846   -0.2786 N   0  0  0  0  0  0  0  0  0  0  0  0
    6.4680    0.9803    0.4752 C   0  0  0  0  0  0  0  0  0  0  0  0
    5.1105    0.6989    0.3272 C   0  0  0  0  0  0  0  0  0  0  0  0
    4.6742   -0.2042   -0.6027 C   0  0  0  0  0  0  0  0  0  0  0  0
   -4.3389   -0.5148   -0.5788 C   0  0  0  0  0  0  0  0  0  0  0  0
   -5.1459   -1.5071    0.2525 C   0  0  0  0  0  0  0  0  0  0  0  0
   -3.5656   -1.2822   -1.6048 C   0  0  0  0  0  0  0  0  0  0  0  0
   -5.3187    0.3749   -1.3082 C   0  0  0  0  0  0  0  0  0  0  0  0
   -0.3072    1.6578    3.6750 H   0  0  0  0  0  0  0  0  0  0  0  0
   -1.4678    2.9932    3.6780 H   0  0  0  0  0  0  0  0  0  0  0  0
   -0.1981    3.0139    2.4249 H   0  0  0  0  0  0  0  0  0  0  0  0
   -3.4800    2.3063    3.0369 H   0  0  0  0  0  0  0  0  0  0  0  0
   -5.0159    1.0776    1.4983 H   0  0  0  0  0  0  0  0  0  0  0  0
   -1.7423   -0.4751   -0.6042 H   0  0  0  0  0  0  0  0  0  0  0  0
    0.7260    1.3608    1.6733 H   0  0  0  0  0  0  0  0  0  0  0  0
    2.7255    0.7521    0.8342 H   0  0  0  0  0  0  0  0  0  0  0  0
    1.9833   -1.7092   -1.9305 H   0  0  0  0  0  0  0  0  0  0  0  0
    3.6927   -2.7474   -3.2656 H   0  0  0  0  0  0  0  0  0  0  0  0
    6.1078   -2.1900   -2.9326 H   0  0  0  0  0  0  0  0  0  0  0  0
    7.7163   -1.0020   -1.8233 H   0  0  0  0  0  0  0  0  0  0  0  0
    6.7878    1.7142    1.2347 H   0  0  0  0  0  0  0  0  0  0  0  0
    4.4318    1.2265    0.9737 H   0  0  0  0  0  0  0  0  0  0  0  0
   -6.0855   -1.6915   -0.3063 H   0  0  0  0  0  0  0  0  0  0  0  0
   -5.3269   -1.0483    1.2271 H   0  0  0  0  0  0  0  0  0  0  0  0
   -4.5473   -2.4332    0.3772 H   0  0  0  0  0  0  0  0  0  0  0  0
   -2.8916   -2.0497   -1.1886 H   0  0  0  0  0  0  0  0  0  0  0  0
   -3.0742   -0.6076   -2.3462 H   0  0  0  0  0  0  0  0  0  0  0  0
   -4.3173   -1.8620   -2.2190 H   0  0  0  0  0  0  0  0  0  0  0  0
   -6.2547   -0.2043   -1.4383 H   0  0  0  0  0  0  0  0  0  0  0  0
   -5.5809    1.2795   -0.7212 H   0  0  0  0  0  0  0  0  0  0  0  0
   -4.9293    0.6069   -2.3138 H   0  0  0  0  0  0  0  0  0  0  0  0
  1  2  1  0
  2  3  2  0
  3  4  1  0
  4  5  2  0
  5  6  1  0
  6  7  2  0
  7  8  1  0
  8  9  1  0
  9 10  2  0
  9 11  1  0
 11 12  1  0
 12 13  2  0
 13 14  1  0
 14 15  2  0
 15 16  1  0
 16 17  2  0
 17 18  1  0
 18 19  2  0
 19 20  1  0
 20 21  2  0
  5 22  1  0
 22 23  1  0
 22 24  1  0
 22 25  1  0
  7  2  1  0
 21 12  1  0
 21 16  1  0
  1 26  1  0
  1 27  1  0
  1 28  1  0
  3 29  1  0
  4 30  1  0
  6 31  1  0
  8 32  1  0
 11 33  1  0
 13 34  1  0
 14 35  1  0
 15 36  1  0
 17 37  1  0
 19 38  1  0
 20 39  1  0
 23 40  1  0
 23 41  1  0
 23 42  1  0
 24 43  1  0
 24 44  1  0
 24 45  1  0
 25 46  1  0
 25 47  1  0
 25 48  1  0
M  END
$$$$
[H]c1c(C(F)(F)F)nc(N2C([H])([H])C([H])([H])C([H])(C([H])([H])[H])C([H])([H])C2([H])[H])c(C([H])([H])N([H])C(=O)N([H])c2c([H])c([H])c(C(C([H])([H])[H])(C([H])([H])[H])C([H])([H])[H])c([H])c2[H])c1[H]
     RDKit          3D

 63 65  0  0  0  0  0  0  0  0999 V2000
   -7.6861   -0.4267    2.5918 C   0  0  0  0  0  0  0  0  0  0  0  0
   -6.6117   -0.5662    1.5285 C   0  0  0  0  0  0  0  0  0  0  0  0
   -6.0904   -1.9698    1.5379 C   0  0  0  0  0  0  0  0  0  0  0  0
   -4.9903   -2.1515    0.4649 C   0  0  0  0  0  0  0  0  0  0  0  0
   -4.2781   -0.9476    0.2812 N   0  0  0  0  0  0  0  0  0  0  0  0
   -4.1890    0.1205    1.2865 C   0  0  0  0  0  0  0  0  0  0  0  0
   -5.4872    0.3260    2.0114 C   0  0  0  0  0  0  0  0  0  0  0  0
   -3.6595   -0.6491   -0.9734 C   0  0  0  0  0  0  0  0  0  0  0  0
   -4.4594   -0.3836   -2.0345 N   0  0  0  0  0  0  0  0  0  0  0  0
   -3.9636    0.0933   -3.1708 C   0  0  0  0  0  0  0  0  0  0  0  0
   -2.6112    0.3155   -3.2613 C   0  0  0  0  0  0  0  0  0  0  0  0
   -1.7530    0.0462   -2.1826 C   0  0  0  0  0  0  0  0  0  0  0  0
   -2.2921   -0.4530   -1.0112 C   0  0  0  0  0  0  0  0  0  0  0  0
   -1.3858   -0.8903    0.1156 C   0  0  0  0  0  0  0  0  0  0  0  0
   -0.1578   -0.3324   -0.0195 N   0  0  0  0  0  0  0  0  0  0  0  0
    1.0535    0.3935    0.1126 C   0  0  0  0  0  0  0  0  0  0  0  0
    1.2505    1.1023    1.1668 O   0  0  0  0  0  0  0  0  0  0  0  0
    2.0507    0.3338   -0.8826 N   0  0  0  0  0  0  0  0  0  0  0  0
    3.3564    0.8234   -0.5276 C   0  0  0  0  0  0  0  0  0  0  0  0
    4.3094    1.0375   -1.4978 C   0  0  0  0  0  0  0  0  0  0  0  0
    5.6267    1.1965   -1.1426 C   0  0  0  0  0  0  0  0  0  0  0  0
    6.0485    1.1487    0.2009 C   0  0  0  0  0  0  0  0  0  0  0  0
    5.0966    0.9508    1.1412 C   0  0  0  0  0  0  0  0  0  0  0  0
    3.7260    0.7854    0.7897 C   0  0  0  0  0  0  0  0  0  0  0  0
    7.4940    1.0624    0.5061 C   0  0  0  0  0  0  0  0  0  0  0  0
    7.8245   -0.4565    0.1107 C   0  0  0  0  0  0  0  0  0  0  0  0
    8.3760    1.8790   -0.3602 C   0  0  0  0  0  0  0  0  0  0  0  0
    7.8910    1.1017    1.9308 C   0  0  0  0  0  0  0  0  0  0  0  0
   -4.8852    0.4380   -4.3200 C   0  0  0  0  0  0  0  0  0  0  0  0
   -5.9459    1.1764   -3.8276 F   0  0  0  0  0  0  0  0  0  0  0  0
   -4.2019    1.2713   -5.1927 F   0  0  0  0  0  0  0  0  0  0  0  0
   -5.3275   -0.6569   -4.9987 F   0  0  0  0  0  0  0  0  0  0  0  0
   -7.2602   -0.1263    3.5700 H   0  0  0  0  0  0  0  0  0  0  0  0
   -8.4119    0.3853    2.3294 H   0  0  0  0  0  0  0  0  0  0  0  0
   -8.3033   -1.3424    2.7248 H   0  0  0  0  0  0  0  0  0  0  0  0
   -6.9924   -0.2648    0.5297 H   0  0  0  0  0  0  0  0  0  0  0  0
   -6.8949   -2.6792    1.3427 H   0  0  0  0  0  0  0  0  0  0  0  0
   -5.5998   -2.1614    2.5041 H   0  0  0  0  0  0  0  0  0  0  0  0
   -5.5470   -2.4759   -0.4289 H   0  0  0  0  0  0  0  0  0  0  0  0
   -4.3708   -3.0360    0.7818 H   0  0  0  0  0  0  0  0  0  0  0  0
   -3.9504    1.1343    0.8008 H   0  0  0  0  0  0  0  0  0  0  0  0
   -3.4308    0.0178    2.0352 H   0  0  0  0  0  0  0  0  0  0  0  0
   -5.8465    1.3845    2.0002 H   0  0  0  0  0  0  0  0  0  0  0  0
   -5.3913    0.0698    3.1032 H   0  0  0  0  0  0  0  0  0  0  0  0
   -2.2425    0.7057   -4.1950 H   0  0  0  0  0  0  0  0  0  0  0  0
   -0.7156    0.2294   -2.2286 H   0  0  0  0  0  0  0  0  0  0  0  0
   -1.2169   -2.0335   -0.2272 H   0  0  0  0  0  0  0  0  0  0  0  0
   -1.8917   -1.0840    1.0510 H   0  0  0  0  0  0  0  0  0  0  0  0
   -0.5185    0.3499    1.1970 H   0  0  0  0  0  0  0  0  0  0  0  0
    1.8497   -0.0238   -1.8325 H   0  0  0  0  0  0  0  0  0  0  0  0
    4.0046    1.0551   -2.5379 H   0  0  0  0  0  0  0  0  0  0  0  0
    6.4126    1.3454   -1.9114 H   0  0  0  0  0  0  0  0  0  0  0  0
    5.3340    0.9052    2.2038 H   0  0  0  0  0  0  0  0  0  0  0  0
    3.0843    0.5862    1.6167 H   0  0  0  0  0  0  0  0  0  0  0  0
    8.9204   -0.4512    0.0947 H   0  0  0  0  0  0  0  0  0  0  0  0
    7.4485   -0.5987   -0.9008 H   0  0  0  0  0  0  0  0  0  0  0  0
    7.4232   -1.0631    0.8968 H   0  0  0  0  0  0  0  0  0  0  0  0
    9.2968    2.1020    0.1745 H   0  0  0  0  0  0  0  0  0  0  0  0
    8.6382    1.3078   -1.3032 H   0  0  0  0  0  0  0  0  0  0  0  0
    7.9185    2.8381   -0.7258 H   0  0  0  0  0  0  0  0  0  0  0  0
    7.0298    1.2611    2.5918 H   0  0  0  0  0  0  0  0  0  0  0  0
    8.5169    0.2019    2.2595 H   0  0  0  0  0  0  0  0  0  0  0  0
    8.5790    2.0034    2.1100 H   0  0  0  0  0  0  0  0  0  0  0  0
  1  2  1  0
  2  3  1  0
  3  4  1  0
  4  5  1  0
  5  6  1  0
  6  7  1  0
  5  8  1  0
  8  9  2  0
  9 10  1  0
 10 11  2  0
 11 12  1  0
 12 13  2  0
 13 14  1  0
 14 15  1  0
 15 16  1  0
 16 17  2  0
 16 18  1  0
 18 19  1  0
 19 20  2  0
 20 21  1  0
 21 22  2  0
 22 23  1  0
 23 24  2  0
 22 25  1  0
 25 26  1  0
 25 27  1  0
 25 28  1  0
 10 29  1  0
 29 30  1  0
 29 31  1  0
 29 32  1  0
  7  2  1  0
 13  8  1  0
 24 19  1  0
  1 33  1  0
  1 34  1  0
  1 35  1  0
  2 36  1  0
  3 37  1  0
  3 38  1  0
  4 39  1  0
  4 40  1  0
  6 41  1  0
  6 42  1  0
  7 43  1  0
  7 44  1  0
 11 45  1  0
 12 46  1  0
 14 47  1  0
 14 48  1  0
 15 49  1  0
 18 50  1  0
 20 51  1  0
 21 52  1  0
 23 53  1  0
 24 54  1  0
 26 55  1  0
 26 56  1  0
 26 57  1  0
 27 58  1  0
 27 59  1  0
 27 60  1  0
 28 61  1  0
 28 62  1  0
 28 63  1  0
M  END
$$$$
[H]c1c(-c2c([H])c([H])c([H])c3nc([H])n([H])c23)c([H])c2sc(N([H])C(=O)C([H])([H])[H])nc2c1[H]
     RDKit          3D

 34 37  0  0  0  0  0  0  0  0999 V2000
    5.6120   -1.0166    0.8716 C   0  0  0  0  0  0  0  0  0  0  0  0
    5.8731   -0.8285   -0.5779 C   0  0  0  0  0  0  0  0  0  0  0  0
    7.0856   -1.0066   -0.9468 O   0  0  0  0  0  0  0  0  0  0  0  0
    4.9086   -0.4824   -1.5212 N   0  0  0  0  0  0  0  0  0  0  0  0
    3.5426   -0.2807   -1.1119 C   0  0  0  0  0  0  0  0  0  0  0  0
    2.9963   -0.3693    0.0753 N   0  0  0  0  0  0  0  0  0  0  0  0
    1.7167   -0.1443    0.2406 C   0  0  0  0  0  0  0  0  0  0  0  0
    1.0193   -0.2084    1.4600 C   0  0  0  0  0  0  0  0  0  0  0  0
   -0.3256    0.0545    1.4739 C   0  0  0  0  0  0  0  0  0  0  0  0
   -1.0846    0.3867    0.3693 C   0  0  0  0  0  0  0  0  0  0  0  0
   -0.3874    0.4468   -0.8244 C   0  0  0  0  0  0  0  0  0  0  0  0
    0.9905    0.1816   -0.8640 C   0  0  0  0  0  0  0  0  0  0  0  0
    2.1844    0.1484   -2.0868 S   0  0  0  0  0  0  0  0  0  0  0  0
   -2.4889    0.6652    0.4336 C   0  0  0  0  0  0  0  0  0  0  0  0
   -2.9771    1.5590    1.3919 C   0  0  0  0  0  0  0  0  0  0  0  0
   -4.3191    1.8366    1.4490 C   0  0  0  0  0  0  0  0  0  0  0  0
   -5.1814    1.2440    0.5740 C   0  0  0  0  0  0  0  0  0  0  0  0
   -4.7088    0.3486   -0.3888 C   0  0  0  0  0  0  0  0  0  0  0  0
   -5.3201   -0.3653   -1.3510 N   0  0  0  0  0  0  0  0  0  0  0  0
   -4.3763   -1.0723   -1.9921 C   0  0  0  0  0  0  0  0  0  0  0  0
   -3.1656   -0.8277   -1.4612 N   0  0  0  0  0  0  0  0  0  0  0  0
   -3.3628    0.0549   -0.4641 C   0  0  0  0  0  0  0  0  0  0  0  0
    6.5330   -1.2856    1.4335 H   0  0  0  0  0  0  0  0  0  0  0  0
    5.2414   -0.0706    1.3100 H   0  0  0  0  0  0  0  0  0  0  0  0
    4.8950   -1.8605    0.9852 H   0  0  0  0  0  0  0  0  0  0  0  0
    5.1498   -0.3651   -2.5183 H   0  0  0  0  0  0  0  0  0  0  0  0
    1.5427   -0.4662    2.3956 H   0  0  0  0  0  0  0  0  0  0  0  0
   -0.8050   -0.0140    2.4600 H   0  0  0  0  0  0  0  0  0  0  0  0
   -0.8266    0.6918   -1.7615 H   0  0  0  0  0  0  0  0  0  0  0  0
   -2.2513    2.0031    2.0637 H   0  0  0  0  0  0  0  0  0  0  0  0
   -4.6732    2.5380    2.2067 H   0  0  0  0  0  0  0  0  0  0  0  0
   -6.2498    1.4721    0.6276 H   0  0  0  0  0  0  0  0  0  0  0  0
   -4.5501   -1.7417   -2.8139 H   0  0  0  0  0  0  0  0  0  0  0  0
   -2.2376   -1.2256   -1.7374 H   0  0  0  0  0  0  0  0  0  0  0  0
  1  2  1  0
  2  3  2  0
  2  4  1  0
  4  5  1  0
  5  6  2  0
  6  7  1  0
  7  8  2  0
  8  9  1  0
  9 10  2  0
 10 11  1  0
 11 12  2  0
 12 13  1  0
 10 14  1  0
 14 15  2  0
 15 16  1  0
 16 17  2  0
 17 18  1  0
 18 19  1  0
 19 20  2  0
 20 21  1  0
 21 22  1  0
 13  5  1  0
 22 14  1  0
 12  7  1  0
 22 18  2  0
  1 23  1  0
  1 24  1  0
  1 25  1  0
  4 26  1  0
  8 27  1  0
  9 28  1  0
 11 29  1  0
 15 30  1  0
 16 31  1  0
 17 32  1  0
 20 33  1  0
 21 34  1  0
M  END
$$$$
[H]c1nc([H])c([H])c(-c2nn(C([H])([H])C([H])(C([H])([H])[H])C([H])([H])[H])c(N([H])C(=O)N([H])c3c([H])c([H])c(C(F)(F)F)c([H])c3[H])c2[H])c1[H]
     RDKit          3D

 49 51  0  0  0  0  0  0  0  0999 V2000
   -3.2475    3.0458   -0.8557 C   0  0  0  0  0  0  0  0  0  0  0  0
   -2.0508    3.3812    0.0341 C   0  0  0  0  0  0  0  0  0  0  0  0
   -2.1600    4.8406    0.4336 C   0  0  0  0  0  0  0  0  0  0  0  0
   -2.0587    2.5464    1.2961 C   0  0  0  0  0  0  0  0  0  0  0  0
   -2.0242    1.1254    0.9382 N   0  0  0  0  0  0  0  0  0  0  0  0
   -3.0743    0.3530    0.8170 N   0  0  0  0  0  0  0  0  0  0  0  0
   -2.7115   -0.9061    0.4470 C   0  0  0  0  0  0  0  0  0  0  0  0
   -1.3395   -0.8280    0.3558 C   0  0  0  0  0  0  0  0  0  0  0  0
   -0.8678    0.4194    0.6549 C   0  0  0  0  0  0  0  0  0  0  0  0
    0.4032    0.9996    0.7193 N   0  0  0  0  0  0  0  0  0  0  0  0
    1.6765    0.5815    0.4263 C   0  0  0  0  0  0  0  0  0  0  0  0
    2.6325    1.4518    0.6766 O   0  0  0  0  0  0  0  0  0  0  0  0
    2.0726   -0.6592   -0.1050 N   0  0  0  0  0  0  0  0  0  0  0  0
    3.4806   -0.8898   -0.3542 C   0  0  0  0  0  0  0  0  0  0  0  0
    4.3099    0.0717   -0.8849 C   0  0  0  0  0  0  0  0  0  0  0  0
    5.6633   -0.1797   -1.0629 C   0  0  0  0  0  0  0  0  0  0  0  0
    6.1780   -1.3914   -0.7090 C   0  0  0  0  0  0  0  0  0  0  0  0
    5.3770   -2.3819   -0.1753 C   0  0  0  0  0  0  0  0  0  0  0  0
    4.0275   -2.0843   -0.0154 C   0  0  0  0  0  0  0  0  0  0  0  0
    7.6304   -1.6964   -0.8686 C   0  0  0  0  0  0  0  0  0  0  0  0
    7.7637   -2.6892   -1.8090 F   0  0  0  0  0  0  0  0  0  0  0  0
    8.2891   -0.5614   -1.3112 F   0  0  0  0  0  0  0  0  0  0  0  0
    8.0964   -2.0341    0.3785 F   0  0  0  0  0  0  0  0  0  0  0  0
   -3.6150   -2.0341    0.2469 C   0  0  0  0  0  0  0  0  0  0  0  0
   -4.9475   -1.8613    0.6704 C   0  0  0  0  0  0  0  0  0  0  0  0
   -5.9127   -2.8155    0.4976 C   0  0  0  0  0  0  0  0  0  0  0  0
   -5.5380   -3.9770   -0.1127 N   0  0  0  0  0  0  0  0  0  0  0  0
   -4.2654   -4.1644   -0.5271 C   0  0  0  0  0  0  0  0  0  0  0  0
   -3.2679   -3.2101   -0.3641 C   0  0  0  0  0  0  0  0  0  0  0  0
   -3.1920    2.0322   -1.2731 H   0  0  0  0  0  0  0  0  0  0  0  0
   -3.2656    3.7939   -1.6619 H   0  0  0  0  0  0  0  0  0  0  0  0
   -4.1911    3.0971   -0.2450 H   0  0  0  0  0  0  0  0  0  0  0  0
   -1.1057    3.1544   -0.5147 H   0  0  0  0  0  0  0  0  0  0  0  0
   -2.7115    5.3362   -0.3950 H   0  0  0  0  0  0  0  0  0  0  0  0
   -2.6734    4.9592    1.4063 H   0  0  0  0  0  0  0  0  0  0  0  0
   -1.1647    5.3390    0.4811 H   0  0  0  0  0  0  0  0  0  0  0  0
   -1.2754    2.7965    1.9872 H   0  0  0  0  0  0  0  0  0  0  0  0
   -3.0461    2.7015    1.7964 H   0  0  0  0  0  0  0  0  0  0  0  0
   -0.6959   -1.6651    0.0759 H   0  0  0  0  0  0  0  0  0  0  0  0
    0.4079    2.0492    1.1254 H   0  0  0  0  0  0  0  0  0  0  0  0
    1.4332   -1.4228   -0.3403 H   0  0  0  0  0  0  0  0  0  0  0  0
    3.9086    1.0394   -1.1996 H   0  0  0  0  0  0  0  0  0  0  0  0
    6.2878    0.5832   -1.4752 H   0  0  0  0  0  0  0  0  0  0  0  0
    5.7919   -3.3485    0.1162 H   0  0  0  0  0  0  0  0  0  0  0  0
    3.4029   -2.8568    0.4057 H   0  0  0  0  0  0  0  0  0  0  0  0
   -5.2092   -0.9310    1.1529 H   0  0  0  0  0  0  0  0  0  0  0  0
   -6.9494   -2.6599    0.8330 H   0  0  0  0  0  0  0  0  0  0  0  0
   -4.0249   -5.1038   -1.0175 H   0  0  0  0  0  0  0  0  0  0  0  0
   -2.2476   -3.3465   -0.6950 H   0  0  0  0  0  0  0  0  0  0  0  0
  1  2  1  0
  2  3  1  0
  2  4  1  0
  4  5  1  0
  5  6  1  0
  6  7  2  0
  7  8  1  0
  8  9  2  0
  9 10  1  0
 10 11  1  0
 11 12  2  0
 11 13  1  0
 13 14  1  0
 14 15  2  0
 15 16  1  0
 16 17  2  0
 17 18  1  0
 18 19  2  0
 17 20  1  0
 20 21  1  0
 20 22  1  0
 20 23  1  0
  7 24  1  0
 24 25  2  0
 25 26  1  0
 26 27  2  0
 27 28  1  0
 28 29  2  0
  9  5  1  0
 19 14  1  0
 29 24  1  0
  1 30  1  0
  1 31  1  0
  1 32  1  0
  2 33  1  0
  3 34  1  0
  3 35  1  0
  3 36  1  0
  4 37  1  0
  4 38  1  0
  8 39  1  0
 10 40  1  0
 13 41  1  0
 15 42  1  0
 16 43  1  0
 18 44  1  0
 19 45  1  0
 25 46  1  0
 26 47  1  0
 28 48  1  0
 29 49  1  0
M  END
$$$$
[H]c1nc(N2C([H])([H])C([H])([H])c3nc(N4C([H])([H])C([H])([H])N([H])C([H])([H])C4([H])[H])nc(N([H])c4c([H])c(S(=O)(=O)N([H])C([H])([H])[H])c([H])c([H])c4Cl)c3C([H])([H])C2([H])[H])c(C(F)(F)F)c([H])c1[H]
     RDKit          3D

 68 72  0  0  0  0  0  0  0  0999 V2000
    5.9176    1.5186   -1.2590 C   0  0  0  0  0  0  0  0  0  0  0  0
    6.7887    1.2358   -0.1430 N   0  0  0  0  0  0  0  0  0  0  0  0
    5.8903    0.9058    1.3076 S   0  0  0  0  0  0  0  0  0  0  0  0
    5.0952    2.0747    1.7395 O   0  0  0  0  0  0  0  0  0  0  0  0
    6.9150    0.5823    2.3731 O   0  0  0  0  0  0  0  0  0  0  0  0
    4.8814   -0.5072    1.0825 C   0  0  0  0  0  0  0  0  0  0  0  0
    5.3798   -1.7516    1.3624 C   0  0  0  0  0  0  0  0  0  0  0  0
    4.6041   -2.8709    1.1884 C   0  0  0  0  0  0  0  0  0  0  0  0
    3.3167   -2.7269    0.7289 C   0  0  0  0  0  0  0  0  0  0  0  0
    2.3844   -4.1665    0.5299 Cl  0  0  0  0  0  0  0  0  0  0  0  0
    2.7462   -1.4815    0.4241 C   0  0  0  0  0  0  0  0  0  0  0  0
    1.4314   -1.4672   -0.0605 N   0  0  0  0  0  0  0  0  0  0  0  0
    0.5854   -0.3687   -0.3274 C   0  0  0  0  0  0  0  0  0  0  0  0
    0.9398    0.9036    0.0340 N   0  0  0  0  0  0  0  0  0  0  0  0
    0.1720    1.9821   -0.1039 C   0  0  0  0  0  0  0  0  0  0  0  0
   -1.0655    1.7710   -0.6537 N   0  0  0  0  0  0  0  0  0  0  0  0
   -1.4622    0.5661   -1.0222 C   0  0  0  0  0  0  0  0  0  0  0  0
   -2.8464    0.4438   -1.5710 C   0  0  0  0  0  0  0  0  0  0  0  0
   -3.6145   -0.3570   -0.5421 C   0  0  0  0  0  0  0  0  0  0  0  0
   -3.3505   -1.7442   -0.4752 N   0  0  0  0  0  0  0  0  0  0  0  0
   -2.1385   -2.5002   -0.4977 C   0  0  0  0  0  0  0  0  0  0  0  0
   -1.0123   -1.9437   -1.3132 C   0  0  0  0  0  0  0  0  0  0  0  0
   -0.6490   -0.5759   -0.8785 C   0  0  0  0  0  0  0  0  0  0  0  0
   -4.4928   -2.5763   -0.3098 C   0  0  0  0  0  0  0  0  0  0  0  0
   -4.6698   -2.9403    1.0021 N   0  0  0  0  0  0  0  0  0  0  0  0
   -5.6637   -3.6946    1.3969 C   0  0  0  0  0  0  0  0  0  0  0  0
   -6.5600   -4.1342    0.4505 C   0  0  0  0  0  0  0  0  0  0  0  0
   -6.4253   -3.7979   -0.8704 C   0  0  0  0  0  0  0  0  0  0  0  0
   -5.3607   -2.9969   -1.2573 C   0  0  0  0  0  0  0  0  0  0  0  0
   -5.2040   -2.6436   -2.6641 C   0  0  0  0  0  0  0  0  0  0  0  0
   -3.9749   -3.0119   -3.1860 F   0  0  0  0  0  0  0  0  0  0  0  0
   -5.6136   -1.3929   -2.9485 F   0  0  0  0  0  0  0  0  0  0  0  0
   -6.1217   -3.4741   -3.3828 F   0  0  0  0  0  0  0  0  0  0  0  0
    0.5672    3.2797    0.2918 N   0  0  0  0  0  0  0  0  0  0  0  0
    1.8302    3.4613    0.9405 C   0  0  0  0  0  0  0  0  0  0  0  0
    1.7194    4.6322    1.8970 C   0  0  0  0  0  0  0  0  0  0  0  0
    0.3828    4.7725    2.3928 N   0  0  0  0  0  0  0  0  0  0  0  0
   -0.5899    5.1078    1.3923 C   0  0  0  0  0  0  0  0  0  0  0  0
   -0.2788    4.4159    0.0590 C   0  0  0  0  0  0  0  0  0  0  0  0
    3.5740   -0.4085    0.6197 C   0  0  0  0  0  0  0  0  0  0  0  0
    6.5589    1.6665   -2.1429 H   0  0  0  0  0  0  0  0  0  0  0  0
    5.2173    0.6775   -1.4336 H   0  0  0  0  0  0  0  0  0  0  0  0
    5.2999    2.3994   -1.0019 H   0  0  0  0  0  0  0  0  0  0  0  0
    7.4642    0.4817   -0.3518 H   0  0  0  0  0  0  0  0  0  0  0  0
    6.4138   -1.8438    1.7295 H   0  0  0  0  0  0  0  0  0  0  0  0
    5.0425   -3.8308    1.4230 H   0  0  0  0  0  0  0  0  0  0  0  0
    1.0072   -2.4157   -0.2263 H   0  0  0  0  0  0  0  0  0  0  0  0
   -2.7579   -0.0997   -2.5323 H   0  0  0  0  0  0  0  0  0  0  0  0
   -3.2788    1.4351   -1.6573 H   0  0  0  0  0  0  0  0  0  0  0  0
   -3.3137    0.1494    0.4600 H   0  0  0  0  0  0  0  0  0  0  0  0
   -4.6910   -0.0833   -0.6527 H   0  0  0  0  0  0  0  0  0  0  0  0
   -1.8241   -2.6106    0.5742 H   0  0  0  0  0  0  0  0  0  0  0  0
   -2.3141   -3.5375   -0.8542 H   0  0  0  0  0  0  0  0  0  0  0  0
   -0.2078   -2.6180   -1.3885 H   0  0  0  0  0  0  0  0  0  0  0  0
   -1.4443   -1.8813   -2.3782 H   0  0  0  0  0  0  0  0  0  0  0  0
   -5.7823   -3.9724    2.4606 H   0  0  0  0  0  0  0  0  0  0  0  0
   -7.3934   -4.7630    0.7625 H   0  0  0  0  0  0  0  0  0  0  0  0
   -7.1230   -4.1330   -1.6319 H   0  0  0  0  0  0  0  0  0  0  0  0
    2.6772    3.6307    0.2603 H   0  0  0  0  0  0  0  0  0  0  0  0
    2.0301    2.5356    1.5545 H   0  0  0  0  0  0  0  0  0  0  0  0
    2.3927    4.4274    2.7643 H   0  0  0  0  0  0  0  0  0  0  0  0
    2.0491    5.5309    1.3361 H   0  0  0  0  0  0  0  0  0  0  0  0
    0.0891    3.8610    2.8242 H   0  0  0  0  0  0  0  0  0  0  0  0
   -1.6151    4.7991    1.7477 H   0  0  0  0  0  0  0  0  0  0  0  0
   -0.6650    6.1895    1.1937 H   0  0  0  0  0  0  0  0  0  0  0  0
    0.1736    5.1664   -0.6159 H   0  0  0  0  0  0  0  0  0  0  0  0
   -1.2647    4.1452   -0.3760 H   0  0  0  0  0  0  0  0  0  0  0  0
    3.2321    0.5729    0.4059 H   0  0  0  0  0  0  0  0  0  0  0  0
  1  2  1  0
  2  3  1  0
  3  4  2  0
  3  5  2  0
  3  6  1  0
  6  7  2  0
  7  8  1  0
  8  9  2  0
  9 10  1  0
  9 11  1  0
 11 12  1  0
 12 13  1  0
 13 14  2  0
 14 15  1  0
 15 16  2  0
 16 17  1  0
 17 18  1  0
 18 19  1  0
 19 20  1  0
 20 21  1  0
 21 22  1  0
 22 23  1  0
 20 24  1  0
 24 25  2  0
 25 26  1  0
 26 27  2  0
 27 28  1  0
 28 29  2  0
 29 30  1  0
 30 31  1  0
 30 32  1  0
 30 33  1  0
 15 34  1  0
 34 35  1  0
 35 36  1  0
 36 37  1  0
 37 38  1  0
 38 39  1  0
 11 40  2  0
 40  6  1  0
 23 13  1  0
 29 24  1  0
 39 34  1  0
 23 17  2  0
  1 41  1  0
  1 42  1  0
  1 43  1  0
  2 44  1  0
  7 45  1  0
  8 46  1  0
 12 47  1  0
 18 48  1  0
 18 49  1  0
 19 50  1  0
 19 51  1  0
 21 52  1  0
 21 53  1  0
 22 54  1  0
 22 55  1  0
 26 56  1  0
 27 57  1  0
 28 58  1  0
 35 59  1  0
 35 60  1  0
 36 61  1  0
 36 62  1  0
 37 63  1  0
 38 64  1  0
 38 65  1  0
 39 66  1  0
 39 67  1  0
 40 68  1  0
M  END
$$$$
[H]c1nc(N2C([H])([H])C([H])([H])c3nc(N4C([H])([H])C([H])([H])N(c5c([H])c([H])c(OC([H])([H])[H])c([H])c5[H])C([H])([H])C4([H])[H])c(C(F)(F)F)c([H])c3C([H])([H])C2([H])[H])c(C(F)(F)F)c([H])c1[H]
     RDKit          3D

 66 70  0  0  0  0  0  0  0  0999 V2000
   -8.7844    2.6628    1.5020 C   0  0  0  0  0  0  0  0  0  0  0  0
   -8.5190    1.9389    0.3354 O   0  0  0  0  0  0  0  0  0  0  0  0
   -7.4387    1.0880    0.2827 C   0  0  0  0  0  0  0  0  0  0  0  0
   -6.6262    0.9542    1.3774 C   0  0  0  0  0  0  0  0  0  0  0  0
   -5.5279    0.0859    1.3172 C   0  0  0  0  0  0  0  0  0  0  0  0
   -5.2478   -0.6313    0.1925 C   0  0  0  0  0  0  0  0  0  0  0  0
   -6.0738   -0.4789   -0.8840 C   0  0  0  0  0  0  0  0  0  0  0  0
   -7.1721    0.3737   -0.8593 C   0  0  0  0  0  0  0  0  0  0  0  0
   -4.1451   -1.5123    0.1347 N   0  0  0  0  0  0  0  0  0  0  0  0
   -3.7108   -2.1661   -1.0730 C   0  0  0  0  0  0  0  0  0  0  0  0
   -2.2060   -2.3287   -1.0254 C   0  0  0  0  0  0  0  0  0  0  0  0
   -1.5173   -1.4135   -0.1814 N   0  0  0  0  0  0  0  0  0  0  0  0
   -2.0435   -1.1066    1.1297 C   0  0  0  0  0  0  0  0  0  0  0  0
   -3.3641   -1.8282    1.3174 C   0  0  0  0  0  0  0  0  0  0  0  0
   -0.3167   -0.7961   -0.5678 C   0  0  0  0  0  0  0  0  0  0  0  0
    0.8294   -1.2839   -0.0025 N   0  0  0  0  0  0  0  0  0  0  0  0
    2.0522   -0.8194   -0.2537 C   0  0  0  0  0  0  0  0  0  0  0  0
    3.0825   -1.5301    0.4890 C   0  0  0  0  0  0  0  0  0  0  0  0
    4.1121   -0.6306    1.1639 C   0  0  0  0  0  0  0  0  0  0  0  0
    4.6673    0.3373    0.3011 N   0  0  0  0  0  0  0  0  0  0  0  0
    4.0378    1.4673   -0.3470 C   0  0  0  0  0  0  0  0  0  0  0  0
    3.3475    0.9195   -1.5974 C   0  0  0  0  0  0  0  0  0  0  0  0
    2.1426    0.2234   -1.1470 C   0  0  0  0  0  0  0  0  0  0  0  0
    1.0096    0.7390   -1.7348 C   0  0  0  0  0  0  0  0  0  0  0  0
   -0.2721    0.2295   -1.4518 C   0  0  0  0  0  0  0  0  0  0  0  0
   -1.4224    0.8243   -2.1151 C   0  0  0  0  0  0  0  0  0  0  0  0
   -2.3769    1.2859   -1.1931 F   0  0  0  0  0  0  0  0  0  0  0  0
   -0.9607    2.0605   -2.6694 F   0  0  0  0  0  0  0  0  0  0  0  0
   -1.9488    0.1761   -3.1770 F   0  0  0  0  0  0  0  0  0  0  0  0
    6.0457    0.2391   -0.0099 C   0  0  0  0  0  0  0  0  0  0  0  0
    6.4251   -0.3650   -1.1845 N   0  0  0  0  0  0  0  0  0  0  0  0
    7.6718   -0.5172   -1.5698 C   0  0  0  0  0  0  0  0  0  0  0  0
    8.6736   -0.0446   -0.7516 C   0  0  0  0  0  0  0  0  0  0  0  0
    8.3368    0.5674    0.4344 C   0  0  0  0  0  0  0  0  0  0  0  0
    6.9996    0.7266    0.8395 C   0  0  0  0  0  0  0  0  0  0  0  0
    6.7318    1.4065    2.1292 C   0  0  0  0  0  0  0  0  0  0  0  0
    7.9609    1.8366    2.6894 F   0  0  0  0  0  0  0  0  0  0  0  0
    6.2559    0.5348    3.1105 F   0  0  0  0  0  0  0  0  0  0  0  0
    5.9605    2.5384    2.0153 F   0  0  0  0  0  0  0  0  0  0  0  0
   -9.7802    3.1506    1.4536 H   0  0  0  0  0  0  0  0  0  0  0  0
   -8.0040    3.3861    1.7825 H   0  0  0  0  0  0  0  0  0  0  0  0
   -8.8581    1.9235    2.3512 H   0  0  0  0  0  0  0  0  0  0  0  0
   -6.8309    1.5203    2.2931 H   0  0  0  0  0  0  0  0  0  0  0  0
   -4.9035    0.0141    2.2165 H   0  0  0  0  0  0  0  0  0  0  0  0
   -5.9016   -1.0132   -1.7808 H   0  0  0  0  0  0  0  0  0  0  0  0
   -7.8271    0.4991   -1.7028 H   0  0  0  0  0  0  0  0  0  0  0  0
   -3.9954   -1.6452   -2.0045 H   0  0  0  0  0  0  0  0  0  0  0  0
   -4.1556   -3.1804   -1.1005 H   0  0  0  0  0  0  0  0  0  0  0  0
   -1.9688   -3.3645   -0.5777 H   0  0  0  0  0  0  0  0  0  0  0  0
   -1.8294   -2.4183   -2.0472 H   0  0  0  0  0  0  0  0  0  0  0  0
   -2.0816   -0.0494    1.3829 H   0  0  0  0  0  0  0  0  0  0  0  0
   -1.3305   -1.5835    1.8660 H   0  0  0  0  0  0  0  0  0  0  0  0
   -3.1061   -2.9308    1.2819 H   0  0  0  0  0  0  0  0  0  0  0  0
   -3.8494   -1.6719    2.2648 H   0  0  0  0  0  0  0  0  0  0  0  0
    3.5982   -2.3169   -0.1363 H   0  0  0  0  0  0  0  0  0  0  0  0
    2.6032   -2.1026    1.3121 H   0  0  0  0  0  0  0  0  0  0  0  0
    3.6964   -0.2149    2.0978 H   0  0  0  0  0  0  0  0  0  0  0  0
    4.9259   -1.3522    1.4700 H   0  0  0  0  0  0  0  0  0  0  0  0
    4.7511    2.2730   -0.6167 H   0  0  0  0  0  0  0  0  0  0  0  0
    3.2282    1.9100    0.2677 H   0  0  0  0  0  0  0  0  0  0  0  0
    4.0429    0.2861   -2.1893 H   0  0  0  0  0  0  0  0  0  0  0  0
    3.1131    1.8025   -2.2276 H   0  0  0  0  0  0  0  0  0  0  0  0
    1.1258    1.5645   -2.4372 H   0  0  0  0  0  0  0  0  0  0  0  0
    7.8722   -1.0102   -2.5199 H   0  0  0  0  0  0  0  0  0  0  0  0
    9.6916   -0.1807   -1.0883 H   0  0  0  0  0  0  0  0  0  0  0  0
    9.1055    0.9415    1.0841 H   0  0  0  0  0  0  0  0  0  0  0  0
  1  2  1  0
  2  3  1  0
  3  4  2  0
  4  5  1  0
  5  6  2  0
  6  7  1  0
  7  8  2  0
  6  9  1  0
  9 10  1  0
 10 11  1  0
 11 12  1  0
 12 13  1  0
 13 14  1  0
 12 15  1  0
 15 16  2  0
 16 17  1  0
 17 18  1  0
 18 19  1  0
 19 20  1  0
 20 21  1  0
 21 22  1  0
 22 23  1  0
 23 24  1  0
 24 25  2  0
 25 26  1  0
 26 27  1  0
 26 28  1  0
 26 29  1  0
 20 30  1  0
 30 31  2  0
 31 32  1  0
 32 33  2  0
 33 34  1  0
 34 35  2  0
 35 36  1  0
 36 37  1  0
 36 38  1  0
 36 39  1  0
  8  3  1  0
 14  9  1  0
 25 15  1  0
 35 30  1  0
 23 17  2  0
  1 40  1  0
  1 41  1  0
  1 42  1  0
  4 43  1  0
  5 44  1  0
  7 45  1  0
  8 46  1  0
 10 47  1  0
 10 48  1  0
 11 49  1  0
 11 50  1  0
 13 51  1  0
 13 52  1  0
 14 53  1  0
 14 54  1  0
 18 55  1  0
 18 56  1  0
 19 57  1  0
 19 58  1  0
 21 59  1  0
 21 60  1  0
 22 61  1  0
 22 62  1  0
 24 63  1  0
 32 64  1  0
 33 65  1  0
 34 66  1  0
M  END
$$$$
[H]c1c([H])c(C([H])(C(=O)N([H])C([H])([H])c2c([H])c([H])c(C(C([H])([H])[H])(C([H])([H])[H])C([H])([H])[H])c([H])c2N(C([H])([H])[H])C([H])([H])[H])C([H])([H])[H])c([H])c(F)c1N([H])S(=O)(=O)C([H])([H])[H]
     RDKit          3D

 63 64  0  0  0  0  0  0  0  0999 V2000
    2.0772   -1.0114    0.6142 C   0  0  0  0  0  0  0  0  0  0  0  0
    2.1991    0.0667   -0.5642 C   0  0  0  0  0  0  0  0  0  0  0  0
    1.1917    1.1006   -0.2352 C   0  0  0  0  0  0  0  0  0  0  0  0
    1.2854    2.2629   -0.5458 O   0  0  0  0  0  0  0  0  0  0  0  0
    0.1517    0.5744    0.5382 N   0  0  0  0  0  0  0  0  0  0  0  0
   -0.8832    0.1518    1.3012 C   0  0  0  0  0  0  0  0  0  0  0  0
   -2.2271    0.4946    0.8499 C   0  0  0  0  0  0  0  0  0  0  0  0
   -2.7363    1.7781    0.7438 C   0  0  0  0  0  0  0  0  0  0  0  0
   -4.0508    1.9699    0.3803 C   0  0  0  0  0  0  0  0  0  0  0  0
   -4.8443    0.8970    0.1239 C   0  0  0  0  0  0  0  0  0  0  0  0
   -4.3524   -0.4032    0.2376 C   0  0  0  0  0  0  0  0  0  0  0  0
   -3.0518   -0.6012    0.6008 C   0  0  0  0  0  0  0  0  0  0  0  0
   -2.6300   -1.9422    0.7780 N   0  0  0  0  0  0  0  0  0  0  0  0
   -1.8925   -2.7254   -0.1417 C   0  0  0  0  0  0  0  0  0  0  0  0
   -3.0507   -2.5361    2.0604 C   0  0  0  0  0  0  0  0  0  0  0  0
   -6.2452    0.9980   -0.3433 C   0  0  0  0  0  0  0  0  0  0  0  0
   -6.3332    0.5893   -1.8151 C   0  0  0  0  0  0  0  0  0  0  0  0
   -7.0566   -0.0671    0.4028 C   0  0  0  0  0  0  0  0  0  0  0  0
   -6.8851    2.3251   -0.1555 C   0  0  0  0  0  0  0  0  0  0  0  0
    3.6026    0.4429   -0.4651 C   0  0  0  0  0  0  0  0  0  0  0  0
    4.5043   -0.6138   -0.6023 C   0  0  0  0  0  0  0  0  0  0  0  0
    5.8612   -0.4910   -0.3792 C   0  0  0  0  0  0  0  0  0  0  0  0
    6.3809    0.7128   -0.0083 C   0  0  0  0  0  0  0  0  0  0  0  0
    7.7286    0.9233    0.3213 N   0  0  0  0  0  0  0  0  0  0  0  0
    9.0276    0.5087   -0.6721 S   0  0  0  0  0  0  0  0  0  0  0  0
    9.1752   -1.2251   -0.9744 C   0  0  0  0  0  0  0  0  0  0  0  0
    8.8040    1.2316   -2.0011 O   0  0  0  0  0  0  0  0  0  0  0  0
   10.3181    0.9921   -0.0679 O   0  0  0  0  0  0  0  0  0  0  0  0
    5.4800    1.7805    0.1090 C   0  0  0  0  0  0  0  0  0  0  0  0
    6.0006    2.9956    0.4502 F   0  0  0  0  0  0  0  0  0  0  0  0
    4.1341    1.6620   -0.1036 C   0  0  0  0  0  0  0  0  0  0  0  0
    1.3345   -1.7106    0.3311 H   0  0  0  0  0  0  0  0  0  0  0  0
    3.0463   -1.4874    0.7083 H   0  0  0  0  0  0  0  0  0  0  0  0
    1.8825   -0.4394    1.5467 H   0  0  0  0  0  0  0  0  0  0  0  0
    1.9555   -0.4828   -1.4277 H   0  0  0  0  0  0  0  0  0  0  0  0
    0.0853   -0.4861   -0.2731 H   0  0  0  0  0  0  0  0  0  0  0  0
   -0.8088    0.6158    2.3936 H   0  0  0  0  0  0  0  0  0  0  0  0
   -0.8605   -0.9342    1.5736 H   0  0  0  0  0  0  0  0  0  0  0  0
   -2.1002    2.6209    0.9823 H   0  0  0  0  0  0  0  0  0  0  0  0
   -4.4227    3.0020    0.3638 H   0  0  0  0  0  0  0  0  0  0  0  0
   -4.9730   -1.2482   -0.0161 H   0  0  0  0  0  0  0  0  0  0  0  0
   -0.8016   -2.6543   -0.0744 H   0  0  0  0  0  0  0  0  0  0  0  0
   -2.2819   -2.5429   -1.1893 H   0  0  0  0  0  0  0  0  0  0  0  0
   -2.0932   -3.8399    0.0228 H   0  0  0  0  0  0  0  0  0  0  0  0
   -3.8392   -1.9154    2.5228 H   0  0  0  0  0  0  0  0  0  0  0  0
   -2.1954   -2.5502    2.7479 H   0  0  0  0  0  0  0  0  0  0  0  0
   -3.4778   -3.5310    1.8557 H   0  0  0  0  0  0  0  0  0  0  0  0
   -5.5114    1.0664   -2.3897 H   0  0  0  0  0  0  0  0  0  0  0  0
   -7.2908    0.9667   -2.2361 H   0  0  0  0  0  0  0  0  0  0  0  0
   -6.2072   -0.4920   -1.9209 H   0  0  0  0  0  0  0  0  0  0  0  0
   -8.1062    0.1922    0.2956 H   0  0  0  0  0  0  0  0  0  0  0  0
   -6.8811   -1.0908   -0.0084 H   0  0  0  0  0  0  0  0  0  0  0  0
   -6.7867   -0.0117    1.4528 H   0  0  0  0  0  0  0  0  0  0  0  0
   -7.7572    2.4313   -0.8708 H   0  0  0  0  0  0  0  0  0  0  0  0
   -6.2301    3.1916   -0.3222 H   0  0  0  0  0  0  0  0  0  0  0  0
   -7.3564    2.3957    0.8682 H   0  0  0  0  0  0  0  0  0  0  0  0
    4.1902   -1.6142   -0.9229 H   0  0  0  0  0  0  0  0  0  0  0  0
    6.5364   -1.3459   -0.4703 H   0  0  0  0  0  0  0  0  0  0  0  0
    7.9530    1.3591    1.2825 H   0  0  0  0  0  0  0  0  0  0  0  0
    8.4983   -1.6430   -1.7082 H   0  0  0  0  0  0  0  0  0  0  0  0
    9.1240   -1.7489    0.0260 H   0  0  0  0  0  0  0  0  0  0  0  0
   10.2333   -1.3834   -1.3387 H   0  0  0  0  0  0  0  0  0  0  0  0
    3.4591    2.4693    0.0079 H   0  0  0  0  0  0  0  0  0  0  0  0
  1  2  1  0
  2  3  1  0
  3  4  2  0
  3  5  1  0
  5  6  1  0
  6  7  1  0
  7  8  2  0
  8  9  1  0
  9 10  2  0
 10 11  1  0
 11 12  2  0
 12 13  1  0
 13 14  1  0
 13 15  1  0
 10 16  1  0
 16 17  1  0
 16 18  1  0
 16 19  1  0
  2 20  1  0
 20 21  2  0
 21 22  1  0
 22 23  2  0
 23 24  1  0
 24 25  1  0
 25 26  1  0
 25 27  2  0
 25 28  2  0
 23 29  1  0
 29 30  1  0
 29 31  2  0
 12  7  1  0
 31 20  1  0
  1 32  1  0
  1 33  1  0
  1 34  1  0
  2 35  1  0
  5 36  1  0
  6 37  1  0
  6 38  1  0
  8 39  1  0
  9 40  1  0
 11 41  1  0
 14 42  1  0
 14 43  1  0
 14 44  1  0
 15 45  1  0
 15 46  1  0
 15 47  1  0
 17 48  1  0
 17 49  1  0
 17 50  1  0
 18 51  1  0
 18 52  1  0
 18 53  1  0
 19 54  1  0
 19 55  1  0
 19 56  1  0
 21 57  1  0
 22 58  1  0
 24 59  1  0
 26 60  1  0
 26 61  1  0
 26 62  1  0
 31 63  1  0
M  END
$$$$
[H]c1nc(N2C([H])([H])C([H])([H])c3nc(N4C([H])([H])C([H])([H])C([H])([H])C([H])([H])C4([H])[H])nc(N([H])c4c([H])c([H])c(OC([H])([H])[H])c([H])c4[H])c3C([H])([H])C2([H])[H])c(C(F)(F)F)c([H])c1[H]
     RDKit          3D

 65 69  0  0  0  0  0  0  0  0999 V2000
   -3.4816    7.4073    1.1185 C   0  0  0  0  0  0  0  0  0  0  0  0
   -3.7514    6.2365    0.3733 O   0  0  0  0  0  0  0  0  0  0  0  0
   -2.8775    5.1622    0.3811 C   0  0  0  0  0  0  0  0  0  0  0  0
   -3.1420    4.0271   -0.3431 C   0  0  0  0  0  0  0  0  0  0  0  0
   -2.2548    2.9517   -0.3273 C   0  0  0  0  0  0  0  0  0  0  0  0
   -1.0954    2.9730    0.3993 C   0  0  0  0  0  0  0  0  0  0  0  0
   -0.1513    1.9298    0.5014 N   0  0  0  0  0  0  0  0  0  0  0  0
   -0.3141    0.5659    0.2175 C   0  0  0  0  0  0  0  0  0  0  0  0
   -1.4790    0.0984   -0.2389 N   0  0  0  0  0  0  0  0  0  0  0  0
   -1.7644   -1.1570   -0.5659 C   0  0  0  0  0  0  0  0  0  0  0  0
   -0.7493   -2.0514   -0.4143 N   0  0  0  0  0  0  0  0  0  0  0  0
    0.4546   -1.6786    0.0368 C   0  0  0  0  0  0  0  0  0  0  0  0
    1.4140   -2.8293    0.0845 C   0  0  0  0  0  0  0  0  0  0  0  0
    2.7614   -2.3295   -0.5217 C   0  0  0  0  0  0  0  0  0  0  0  0
    3.4824   -1.6449    0.5061 N   0  0  0  0  0  0  0  0  0  0  0  0
    2.9658   -0.6625    1.4175 C   0  0  0  0  0  0  0  0  0  0  0  0
    1.9132    0.2524    0.8976 C   0  0  0  0  0  0  0  0  0  0  0  0
    0.7084   -0.3820    0.3636 C   0  0  0  0  0  0  0  0  0  0  0  0
    4.8417   -1.9744    0.7011 C   0  0  0  0  0  0  0  0  0  0  0  0
    5.1417   -2.7526    1.8066 N   0  0  0  0  0  0  0  0  0  0  0  0
    6.3798   -3.1195    2.1080 C   0  0  0  0  0  0  0  0  0  0  0  0
    7.3884   -2.6977    1.2740 C   0  0  0  0  0  0  0  0  0  0  0  0
    7.1410   -1.9260    0.1672 C   0  0  0  0  0  0  0  0  0  0  0  0
    5.8193   -1.5444   -0.1400 C   0  0  0  0  0  0  0  0  0  0  0  0
    5.5969   -0.7312   -1.3426 C   0  0  0  0  0  0  0  0  0  0  0  0
    6.8511   -0.3757   -1.9110 F   0  0  0  0  0  0  0  0  0  0  0  0
    5.0274   -1.4647   -2.4015 F   0  0  0  0  0  0  0  0  0  0  0  0
    4.9327    0.4471   -1.1421 F   0  0  0  0  0  0  0  0  0  0  0  0
   -3.0323   -1.5809   -1.0457 N   0  0  0  0  0  0  0  0  0  0  0  0
   -3.2255   -2.9661   -1.3794 C   0  0  0  0  0  0  0  0  0  0  0  0
   -4.5990   -3.4805   -1.0735 C   0  0  0  0  0  0  0  0  0  0  0  0
   -5.6629   -2.5496   -1.6262 C   0  0  0  0  0  0  0  0  0  0  0  0
   -5.4749   -1.2192   -0.9663 C   0  0  0  0  0  0  0  0  0  0  0  0
   -4.0991   -0.6443   -1.1956 C   0  0  0  0  0  0  0  0  0  0  0  0
   -0.8748    4.1598    1.1213 C   0  0  0  0  0  0  0  0  0  0  0  0
   -1.7271    5.2166    1.1175 C   0  0  0  0  0  0  0  0  0  0  0  0
   -2.4212    7.6988    0.8790 H   0  0  0  0  0  0  0  0  0  0  0  0
   -3.6498    7.2658    2.1948 H   0  0  0  0  0  0  0  0  0  0  0  0
   -4.1355    8.2399    0.7534 H   0  0  0  0  0  0  0  0  0  0  0  0
   -4.0538    3.9999   -0.9188 H   0  0  0  0  0  0  0  0  0  0  0  0
   -2.5514    2.1235   -0.9389 H   0  0  0  0  0  0  0  0  0  0  0  0
    0.8230    2.2250    0.8188 H   0  0  0  0  0  0  0  0  0  0  0  0
    1.6093   -3.1787    1.1090 H   0  0  0  0  0  0  0  0  0  0  0  0
    1.1055   -3.6737   -0.5294 H   0  0  0  0  0  0  0  0  0  0  0  0
    2.4247   -1.6619   -1.3635 H   0  0  0  0  0  0  0  0  0  0  0  0
    3.2291   -3.2054   -0.9551 H   0  0  0  0  0  0  0  0  0  0  0  0
    2.4837   -1.2499    2.2619 H   0  0  0  0  0  0  0  0  0  0  0  0
    3.7862   -0.1137    1.9433 H   0  0  0  0  0  0  0  0  0  0  0  0
    1.5972    0.8485    1.8268 H   0  0  0  0  0  0  0  0  0  0  0  0
    2.3049    1.0155    0.1875 H   0  0  0  0  0  0  0  0  0  0  0  0
    6.5914   -3.7411    2.9965 H   0  0  0  0  0  0  0  0  0  0  0  0
    8.4108   -2.9752    1.4850 H   0  0  0  0  0  0  0  0  0  0  0  0
    7.9186   -1.5837   -0.5020 H   0  0  0  0  0  0  0  0  0  0  0  0
   -2.4870   -3.5644   -0.7940 H   0  0  0  0  0  0  0  0  0  0  0  0
   -3.0033   -3.0539   -2.4813 H   0  0  0  0  0  0  0  0  0  0  0  0
   -4.6708   -4.5007   -1.5302 H   0  0  0  0  0  0  0  0  0  0  0  0
   -4.7520   -3.5645    0.0049 H   0  0  0  0  0  0  0  0  0  0  0  0
   -5.5838   -2.4597   -2.7347 H   0  0  0  0  0  0  0  0  0  0  0  0
   -6.6426   -2.9564   -1.3367 H   0  0  0  0  0  0  0  0  0  0  0  0
   -6.2750   -0.5485   -1.3207 H   0  0  0  0  0  0  0  0  0  0  0  0
   -5.6261   -1.3749    0.1369 H   0  0  0  0  0  0  0  0  0  0  0  0
   -3.9421    0.2227   -0.4978 H   0  0  0  0  0  0  0  0  0  0  0  0
   -4.0926   -0.2055   -2.2209 H   0  0  0  0  0  0  0  0  0  0  0  0
    0.0185    4.2153    1.7004 H   0  0  0  0  0  0  0  0  0  0  0  0
   -1.4794    6.0912    1.7024 H   0  0  0  0  0  0  0  0  0  0  0  0
  1  2  1  0
  2  3  1  0
  3  4  2  0
  4  5  1  0
  5  6  2  0
  6  7  1  0
  7  8  1  0
  8  9  2  0
  9 10  1  0
 10 11  2  0
 11 12  1  0
 12 13  1  0
 13 14  1  0
 14 15  1  0
 15 16  1  0
 16 17  1  0
 17 18  1  0
 15 19  1  0
 19 20  2  0
 20 21  1  0
 21 22  2  0
 22 23  1  0
 23 24  2  0
 24 25  1  0
 25 26  1  0
 25 27  1  0
 25 28  1  0
 10 29  1  0
 29 30  1  0
 30 31  1  0
 31 32  1  0
 32 33  1  0
 33 34  1  0
  6 35  1  0
 35 36  2  0
 36  3  1  0
 18  8  1  0
 24 19  1  0
 34 29  1  0
 18 12  2  0
  1 37  1  0
  1 38  1  0
  1 39  1  0
  4 40  1  0
  5 41  1  0
  7 42  1  0
 13 43  1  0
 13 44  1  0
 14 45  1  0
 14 46  1  0
 16 47  1  0
 16 48  1  0
 17 49  1  0
 17 50  1  0
 21 51  1  0
 22 52  1  0
 23 53  1  0
 30 54  1  0
 30 55  1  0
 31 56  1  0
 31 57  1  0
 32 58  1  0
 32 59  1  0
 33 60  1  0
 33 61  1  0
 34 62  1  0
 34 63  1  0
 35 64  1  0
 36 65  1  0
M  END
$$$$
[H]O[C@@]1([H])C([H])([H])N([H])[C@]([H])(O[H])C([H])([H])[C@@]1([H])N([H])C(=O)N([H])c1nc2c([H])c([H])c(-c3c([H])c([H])c([H])c(C(F)(F)F)c3[H])c([H])c2s1
     RDKit          3D

 50 53  0  0  0  0  0  0  0  0999 V2000
    8.0343    1.5950    1.5920 O   0  0  0  0  0  0  0  0  0  0  0  0
    7.1714    0.9189    0.7661 C   0  0  2  0  0  0  0  0  0  0  0  0
    6.2326    0.0909    1.6169 C   0  0  0  0  0  0  0  0  0  0  0  0
    5.2369   -0.6492    0.7429 C   0  0  1  0  0  0  0  0  0  0  0  0
    4.1735    0.1659    0.2680 N   0  0  0  0  0  0  0  0  0  0  0  0
    2.8423    0.0696    0.1460 C   0  0  0  0  0  0  0  0  0  0  0  0
    2.1830   -1.0063    0.5755 O   0  0  0  0  0  0  0  0  0  0  0  0
    1.9158    1.0122   -0.4091 N   0  0  0  0  0  0  0  0  0  0  0  0
    0.5101    0.8244   -0.4626 C   0  0  0  0  0  0  0  0  0  0  0  0
   -0.2470   -0.1652   -0.0404 N   0  0  0  0  0  0  0  0  0  0  0  0
   -1.5461   -0.1258   -0.1975 C   0  0  0  0  0  0  0  0  0  0  0  0
   -2.4600   -1.1048    0.2228 C   0  0  0  0  0  0  0  0  0  0  0  0
   -3.7999   -0.9631    0.0263 C   0  0  0  0  0  0  0  0  0  0  0  0
   -4.3467    0.1685   -0.6051 C   0  0  0  0  0  0  0  0  0  0  0  0
   -3.4550    1.1268   -1.0175 C   0  0  0  0  0  0  0  0  0  0  0  0
   -2.0688    0.9758   -0.8101 C   0  0  0  0  0  0  0  0  0  0  0  0
   -0.6646    1.8851   -1.1204 S   0  0  0  0  0  0  0  0  0  0  0  0
   -5.7943    0.2978   -0.7461 C   0  0  0  0  0  0  0  0  0  0  0  0
   -6.4304    0.9072   -1.7903 C   0  0  0  0  0  0  0  0  0  0  0  0
   -7.8179    1.0131   -1.7501 C   0  0  0  0  0  0  0  0  0  0  0  0
   -8.5202    0.5168   -0.6938 C   0  0  0  0  0  0  0  0  0  0  0  0
   -7.8915   -0.1011    0.3579 C   0  0  0  0  0  0  0  0  0  0  0  0
   -6.5230   -0.2131    0.3340 C   0  0  0  0  0  0  0  0  0  0  0  0
   -8.6166   -0.6614    1.5329 C   0  0  0  0  0  0  0  0  0  0  0  0
   -9.9727   -0.5588    1.2881 F   0  0  0  0  0  0  0  0  0  0  0  0
   -8.2885    0.1043    2.6576 F   0  0  0  0  0  0  0  0  0  0  0  0
   -8.2546   -1.9819    1.7933 F   0  0  0  0  0  0  0  0  0  0  0  0
    5.9976   -1.3813   -0.3485 C   0  0  1  0  0  0  0  0  0  0  0  0
    5.1929   -2.0883   -1.1949 O   0  0  0  0  0  0  0  0  0  0  0  0
    6.9424   -0.4912   -1.0820 C   0  0  0  0  0  0  0  0  0  0  0  0
    7.9064    0.0162   -0.0872 N   0  0  0  0  0  0  0  0  0  0  0  0
    7.6020    2.4232    1.9188 H   0  0  0  0  0  0  0  0  0  0  0  0
    6.6316    1.6563    0.1359 H   0  0  0  0  0  0  0  0  0  0  0  0
    5.6946    0.6490    2.3750 H   0  0  0  0  0  0  0  0  0  0  0  0
    6.8668   -0.6754    2.1152 H   0  0  0  0  0  0  0  0  0  0  0  0
    4.7986   -1.4484    1.3622 H   0  0  0  0  0  0  0  0  0  0  0  0
    4.5388    1.1705   -0.1109 H   0  0  0  0  0  0  0  0  0  0  0  0
    2.3148    1.8834   -0.7958 H   0  0  0  0  0  0  0  0  0  0  0  0
   -2.1095   -2.0258    0.7333 H   0  0  0  0  0  0  0  0  0  0  0  0
   -4.4912   -1.7286    0.3510 H   0  0  0  0  0  0  0  0  0  0  0  0
   -3.7560    2.0407   -1.4951 H   0  0  0  0  0  0  0  0  0  0  0  0
   -5.8620    1.2703   -2.6228 H   0  0  0  0  0  0  0  0  0  0  0  0
   -8.2865    1.5048   -2.5973 H   0  0  0  0  0  0  0  0  0  0  0  0
   -9.6082    0.6189   -0.6640 H   0  0  0  0  0  0  0  0  0  0  0  0
   -6.0368   -0.6978    1.1543 H   0  0  0  0  0  0  0  0  0  0  0  0
    6.6475   -2.1172    0.2156 H   0  0  0  0  0  0  0  0  0  0  0  0
    5.1952   -3.0709   -1.1037 H   0  0  0  0  0  0  0  0  0  0  0  0
    7.5727   -1.1524   -1.7550 H   0  0  0  0  0  0  0  0  0  0  0  0
    6.4744    0.3205   -1.6565 H   0  0  0  0  0  0  0  0  0  0  0  0
    8.1718   -0.8177    0.4901 H   0  0  0  0  0  0  0  0  0  0  0  0
  1  2  1  0
  2  3  1  0
  3  4  1  0
  4  5  1  0
  5  6  1  0
  6  7  2  0
  6  8  1  0
  8  9  1  0
  9 10  2  0
 10 11  1  0
 11 12  2  0
 12 13  1  0
 13 14  2  0
 14 15  1  0
 15 16  2  0
 16 17  1  0
 14 18  1  0
 18 19  2  0
 19 20  1  0
 20 21  2  0
 21 22  1  0
 22 23  2  0
 22 24  1  0
 24 25  1  0
 24 26  1  0
 24 27  1  0
  4 28  1  0
 28 29  1  0
 28 30  1  0
 30 31  1  0
 31  2  1  0
 17  9  1  0
 23 18  1  0
 16 11  1  0
  1 32  1  0
  2 33  1  6
  3 34  1  0
  3 35  1  0
  4 36  1  1
  5 37  1  0
  8 38  1  0
 12 39  1  0
 13 40  1  0
 15 41  1  0
 19 42  1  0
 20 43  1  0
 21 44  1  0
 23 45  1  0
 28 46  1  1
 29 47  1  0
 30 48  1  0
 30 49  1  0
 31 50  1  0
M  END
$$$$
[H]c1nc([H])c2c([H])c([H])c(N([H])C(=O)N([H])C([H])([H])c3c(N4C([H])([H])C([H])([H])C([H])([H])C([H])(C([H])([H])[H])C4([H])[H])nc(C(F)(F)F)c([H])c3[H])c([H])c2c1[H]
     RDKit          3D

 56 59  0  0  0  0  0  0  0  0999 V2000
   -5.5388    2.1278    2.2990 C   0  0  0  0  0  0  0  0  0  0  0  0
   -4.8530    1.6405    1.0370 C   0  0  0  0  0  0  0  0  0  0  0  0
   -5.8951    1.4084   -0.0215 C   0  0  0  0  0  0  0  0  0  0  0  0
   -5.2557    0.9088   -1.2777 C   0  0  0  0  0  0  0  0  0  0  0  0
   -3.7335    0.7764   -1.1121 C   0  0  0  0  0  0  0  0  0  0  0  0
   -3.4577   -0.0217    0.0440 N   0  0  0  0  0  0  0  0  0  0  0  0
   -4.0580    0.3783    1.2954 C   0  0  0  0  0  0  0  0  0  0  0  0
   -2.6379   -1.1519   -0.0090 C   0  0  0  0  0  0  0  0  0  0  0  0
   -3.2169   -2.3979    0.1131 N   0  0  0  0  0  0  0  0  0  0  0  0
   -2.4867   -3.5178    0.0742 C   0  0  0  0  0  0  0  0  0  0  0  0
   -1.1384   -3.4457   -0.0886 C   0  0  0  0  0  0  0  0  0  0  0  0
   -0.5388   -2.1846   -0.2138 C   0  0  0  0  0  0  0  0  0  0  0  0
   -1.2877   -1.0387   -0.1741 C   0  0  0  0  0  0  0  0  0  0  0  0
   -0.6524    0.2701   -0.3140 C   0  0  0  0  0  0  0  0  0  0  0  0
    0.7243    0.2783   -0.4375 N   0  0  0  0  0  0  0  0  0  0  0  0
    2.0916    0.2827   -0.5657 C   0  0  0  0  0  0  0  0  0  0  0  0
    2.7159   -0.3086   -1.4893 O   0  0  0  0  0  0  0  0  0  0  0  0
    2.9118    0.9945    0.3886 N   0  0  0  0  0  0  0  0  0  0  0  0
    4.2851    1.0475    0.3439 C   0  0  0  0  0  0  0  0  0  0  0  0
    4.8967    2.1213    1.0252 C   0  0  0  0  0  0  0  0  0  0  0  0
    6.2495    2.2855    1.0824 C   0  0  0  0  0  0  0  0  0  0  0  0
    7.0469    1.3601    0.4461 C   0  0  0  0  0  0  0  0  0  0  0  0
    8.4376    1.4954    0.4812 C   0  0  0  0  0  0  0  0  0  0  0  0
    9.2313    0.6016   -0.1363 N   0  0  0  0  0  0  0  0  0  0  0  0
    8.7326   -0.4494   -0.8070 C   0  0  0  0  0  0  0  0  0  0  0  0
    7.3591   -0.5845   -0.8422 C   0  0  0  0  0  0  0  0  0  0  0  0
    6.5183    0.2965   -0.2311 C   0  0  0  0  0  0  0  0  0  0  0  0
    5.1242    0.1720   -0.2601 C   0  0  0  0  0  0  0  0  0  0  0  0
   -3.1736   -4.8274    0.2106 C   0  0  0  0  0  0  0  0  0  0  0  0
   -3.5485   -5.2394   -1.0453 F   0  0  0  0  0  0  0  0  0  0  0  0
   -2.3194   -5.7750    0.7589 F   0  0  0  0  0  0  0  0  0  0  0  0
   -4.3002   -4.6508    0.9629 F   0  0  0  0  0  0  0  0  0  0  0  0
   -5.9363    3.1445    2.1087 H   0  0  0  0  0  0  0  0  0  0  0  0
   -6.4067    1.4527    2.4815 H   0  0  0  0  0  0  0  0  0  0  0  0
   -4.8466    2.1031    3.1717 H   0  0  0  0  0  0  0  0  0  0  0  0
   -4.1608    2.4239    0.6731 H   0  0  0  0  0  0  0  0  0  0  0  0
   -6.5975    0.6258    0.3786 H   0  0  0  0  0  0  0  0  0  0  0  0
   -6.4763    2.3549   -0.2141 H   0  0  0  0  0  0  0  0  0  0  0  0
   -5.6080   -0.1433   -1.4859 H   0  0  0  0  0  0  0  0  0  0  0  0
   -5.4435    1.5435   -2.1631 H   0  0  0  0  0  0  0  0  0  0  0  0
   -3.3055    1.7994   -1.0606 H   0  0  0  0  0  0  0  0  0  0  0  0
   -3.3837    0.3226   -2.0610 H   0  0  0  0  0  0  0  0  0  0  0  0
   -3.2980    0.6465    2.0595 H   0  0  0  0  0  0  0  0  0  0  0  0
   -4.6564   -0.4369    1.6996 H   0  0  0  0  0  0  0  0  0  0  0  0
   -0.5270   -4.3331   -0.1239 H   0  0  0  0  0  0  0  0  0  0  0  0
    0.5114   -2.1251   -0.3401 H   0  0  0  0  0  0  0  0  0  0  0  0
   -0.9992    0.9290    0.5628 H   0  0  0  0  0  0  0  0  0  0  0  0
   -1.1395    0.8287   -1.1818 H   0  0  0  0  0  0  0  0  0  0  0  0
    0.6451   -0.5028   -1.5552 H   0  0  0  0  0  0  0  0  0  0  0  0
    2.3655    1.4892    1.1547 H   0  0  0  0  0  0  0  0  0  0  0  0
    4.2523    2.8535    1.5300 H   0  0  0  0  0  0  0  0  0  0  0  0
    6.7193    3.1032    1.6022 H   0  0  0  0  0  0  0  0  0  0  0  0
    8.8949    2.3282    1.0107 H   0  0  0  0  0  0  0  0  0  0  0  0
    9.4245   -1.1298   -1.2821 H   0  0  0  0  0  0  0  0  0  0  0  0
    6.9480   -1.4261   -1.3789 H   0  0  0  0  0  0  0  0  0  0  0  0
    4.7917   -0.7039   -0.7963 H   0  0  0  0  0  0  0  0  0  0  0  0
  1  2  1  0
  2  3  1  0
  3  4  1  0
  4  5  1  0
  5  6  1  0
  6  7  1  0
  6  8  1  0
  8  9  2  0
  9 10  1  0
 10 11  2  0
 11 12  1  0
 12 13  2  0
 13 14  1  0
 14 15  1  0
 15 16  1  0
 16 17  2  0
 16 18  1  0
 18 19  1  0
 19 20  2  0
 20 21  1  0
 21 22  2  0
 22 23  1  0
 23 24  2  0
 24 25  1  0
 25 26  2  0
 26 27  1  0
 27 28  2  0
 10 29  1  0
 29 30  1  0
 29 31  1  0
 29 32  1  0
  7  2  1  0
 13  8  1  0
 28 19  1  0
 27 22  1  0
  1 33  1  0
  1 34  1  0
  1 35  1  0
  2 36  1  0
  3 37  1  0
  3 38  1  0
  4 39  1  0
  4 40  1  0
  5 41  1  0
  5 42  1  0
  7 43  1  0
  7 44  1  0
 11 45  1  0
 12 46  1  0
 14 47  1  0
 14 48  1  0
 15 49  1  0
 18 50  1  0
 20 51  1  0
 21 52  1  0
 23 53  1  0
 25 54  1  0
 26 55  1  0
 28 56  1  0
M  END
$$$$
[H]C1=C(c2c([H])c([H])c(N([H])C(=O)c3nc([H])c(C([H])([H])OS(=O)(=O)C([H])([H])[H])o3)c([H])c2[H])C([H])([H])C([H])([H])N(c2c([H])c([H])c([H])c([H])c2C(F)(F)F)C1([H])[H]
     RDKit          3D

 58 61  0  0  0  0  0  0  0  0999 V2000
   10.6160    1.3907   -1.7620 C   0  0  0  0  0  0  0  0  0  0  0  0
   10.7071   -0.3407   -1.3348 S   0  0  0  0  0  0  0  0  0  0  0  0
   12.0297   -0.5419   -0.6169 O   0  0  0  0  0  0  0  0  0  0  0  0
   10.6627   -1.1826   -2.5952 O   0  0  0  0  0  0  0  0  0  0  0  0
    9.5023   -0.7856   -0.2570 O   0  0  0  0  0  0  0  0  0  0  0  0
    8.2889   -0.4113   -0.7744 C   0  0  0  0  0  0  0  0  0  0  0  0
    7.1905   -0.8034    0.1760 C   0  0  0  0  0  0  0  0  0  0  0  0
    7.3505   -1.4571    1.3961 C   0  0  0  0  0  0  0  0  0  0  0  0
    6.1228   -1.6095    1.9108 N   0  0  0  0  0  0  0  0  0  0  0  0
    5.2294   -1.0819    1.0666 C   0  0  0  0  0  0  0  0  0  0  0  0
    5.9064   -0.6101    0.0413 O   0  0  0  0  0  0  0  0  0  0  0  0
    3.7707   -1.0426    1.2578 C   0  0  0  0  0  0  0  0  0  0  0  0
    3.3074   -1.5497    2.2845 O   0  0  0  0  0  0  0  0  0  0  0  0
    2.9808   -0.4372    0.2781 N   0  0  0  0  0  0  0  0  0  0  0  0
    1.5807   -0.2721    0.2414 C   0  0  0  0  0  0  0  0  0  0  0  0
    0.9417    0.1292   -0.9332 C   0  0  0  0  0  0  0  0  0  0  0  0
   -0.4164    0.3295   -1.0345 C   0  0  0  0  0  0  0  0  0  0  0  0
   -1.2134    0.1315    0.0643 C   0  0  0  0  0  0  0  0  0  0  0  0
   -0.6203   -0.2704    1.2599 C   0  0  0  0  0  0  0  0  0  0  0  0
    0.7567   -0.4606    1.3177 C   0  0  0  0  0  0  0  0  0  0  0  0
   -2.6510    0.3312   -0.0285 C   0  0  0  0  0  0  0  0  0  0  0  0
   -3.2068    0.6323   -1.1731 C   0  0  0  0  0  0  0  0  0  0  0  0
   -4.6782    0.8507   -1.3312 C   0  0  0  0  0  0  0  0  0  0  0  0
   -5.4054    0.7546   -0.1020 N   0  0  0  0  0  0  0  0  0  0  0  0
   -4.7453    0.8860    1.1525 C   0  0  0  0  0  0  0  0  0  0  0  0
   -3.4372    0.1889    1.2056 C   0  0  0  0  0  0  0  0  0  0  0  0
   -6.8159    0.5592   -0.1465 C   0  0  0  0  0  0  0  0  0  0  0  0
   -7.5499    1.7626   -0.2004 C   0  0  0  0  0  0  0  0  0  0  0  0
   -8.8994    1.7476   -0.3075 C   0  0  0  0  0  0  0  0  0  0  0  0
   -9.5575    0.5437   -0.3640 C   0  0  0  0  0  0  0  0  0  0  0  0
   -8.8814   -0.6412   -0.3135 C   0  0  0  0  0  0  0  0  0  0  0  0
   -7.4801   -0.6170   -0.2010 C   0  0  0  0  0  0  0  0  0  0  0  0
   -6.7638   -1.9010   -0.0798 C   0  0  0  0  0  0  0  0  0  0  0  0
   -7.7151   -2.9298   -0.2081 F   0  0  0  0  0  0  0  0  0  0  0  0
   -5.7635   -2.0448   -0.9741 F   0  0  0  0  0  0  0  0  0  0  0  0
   -6.2481   -2.0846    1.2048 F   0  0  0  0  0  0  0  0  0  0  0  0
   11.1511    1.5854   -2.7255 H   0  0  0  0  0  0  0  0  0  0  0  0
   11.0828    2.0317   -0.9845 H   0  0  0  0  0  0  0  0  0  0  0  0
    9.5881    1.7445   -1.9111 H   0  0  0  0  0  0  0  0  0  0  0  0
    8.2493    0.7096   -0.7872 H   0  0  0  0  0  0  0  0  0  0  0  0
    8.0649   -0.8765   -1.7398 H   0  0  0  0  0  0  0  0  0  0  0  0
    8.3125   -1.7525    1.7847 H   0  0  0  0  0  0  0  0  0  0  0  0
    3.4955   -0.0241   -0.5851 H   0  0  0  0  0  0  0  0  0  0  0  0
    1.5582    0.2896   -1.8167 H   0  0  0  0  0  0  0  0  0  0  0  0
   -0.8255    0.6521   -2.0113 H   0  0  0  0  0  0  0  0  0  0  0  0
   -1.1964   -0.4472    2.1483 H   0  0  0  0  0  0  0  0  0  0  0  0
    1.1459   -0.7614    2.2722 H   0  0  0  0  0  0  0  0  0  0  0  0
   -2.6609    0.7478   -2.1074 H   0  0  0  0  0  0  0  0  0  0  0  0
   -5.1127    0.3784   -2.2108 H   0  0  0  0  0  0  0  0  0  0  0  0
   -4.7278    1.9727   -1.5967 H   0  0  0  0  0  0  0  0  0  0  0  0
   -4.5817    1.9907    1.3153 H   0  0  0  0  0  0  0  0  0  0  0  0
   -5.4035    0.5946    2.0138 H   0  0  0  0  0  0  0  0  0  0  0  0
   -3.6011   -0.9121    1.3839 H   0  0  0  0  0  0  0  0  0  0  0  0
   -2.8718    0.5314    2.1141 H   0  0  0  0  0  0  0  0  0  0  0  0
   -7.0362    2.7035   -0.1562 H   0  0  0  0  0  0  0  0  0  0  0  0
   -9.4609    2.6977   -0.3500 H   0  0  0  0  0  0  0  0  0  0  0  0
  -10.6602    0.5732   -0.4522 H   0  0  0  0  0  0  0  0  0  0  0  0
   -9.4055   -1.5919   -0.3589 H   0  0  0  0  0  0  0  0  0  0  0  0
  1  2  1  0
  2  3  2  0
  2  4  2  0
  2  5  1  0
  5  6  1  0
  6  7  1  0
  7  8  2  0
  8  9  1  0
  9 10  2  0
 10 11  1  0
 10 12  1  0
 12 13  2  0
 12 14  1  0
 14 15  1  0
 15 16  2  0
 16 17  1  0
 17 18  2  0
 18 19  1  0
 19 20  2  0
 18 21  1  0
 21 22  2  0
 22 23  1  0
 23 24  1  0
 24 25  1  0
 25 26  1  0
 24 27  1  0
 27 28  2  0
 28 29  1  0
 29 30  2  0
 30 31  1  0
 31 32  2  0
 32 33  1  0
 33 34  1  0
 33 35  1  0
 33 36  1  0
 11  7  1  0
 20 15  1  0
 26 21  1  0
 32 27  1  0
  1 37  1  0
  1 38  1  0
  1 39  1  0
  6 40  1  0
  6 41  1  0
  8 42  1  0
 14 43  1  0
 16 44  1  0
 17 45  1  0
 19 46  1  0
 20 47  1  0
 22 48  1  0
 23 49  1  0
 23 50  1  0
 25 51  1  0
 25 52  1  0
 26 53  1  0
 26 54  1  0
 28 55  1  0
 29 56  1  0
 30 57  1  0
 31 58  1  0
M  END
$$$$
[H]c1nc(N2C([H])([H])C([H])([H])c3nc(N4C([H])([H])C([H])([H])OC([H])([H])C4([H])[H])nc(N([H])c4c([H])c([H])c(C([H])(C([H])([H])[H])C([H])([H])[H])c([H])c4[H])c3C([H])([H])C2([H])[H])c(C(F)(F)F)c([H])c1[H]
     RDKit          3D

 68 72  0  0  0  0  0  0  0  0999 V2000
    7.3468   -1.9195   -1.4324 C   0  0  0  0  0  0  0  0  0  0  0  0
    6.7546   -0.7625   -0.6609 C   0  0  0  0  0  0  0  0  0  0  0  0
    7.3348   -0.8021    0.7482 C   0  0  0  0  0  0  0  0  0  0  0  0
    5.2720   -0.8007   -0.6418 C   0  0  0  0  0  0  0  0  0  0  0  0
    4.5984   -1.8917   -0.1412 C   0  0  0  0  0  0  0  0  0  0  0  0
    3.2247   -1.9187   -0.1285 C   0  0  0  0  0  0  0  0  0  0  0  0
    2.4429   -0.8678   -0.6105 C   0  0  0  0  0  0  0  0  0  0  0  0
    1.0299   -1.0392   -0.5686 N   0  0  0  0  0  0  0  0  0  0  0  0
    0.0935   -0.0063   -0.4984 C   0  0  0  0  0  0  0  0  0  0  0  0
    0.4983    1.2883   -0.3200 N   0  0  0  0  0  0  0  0  0  0  0  0
   -0.3185    2.3319   -0.1730 C   0  0  0  0  0  0  0  0  0  0  0  0
   -1.6538    2.0866   -0.2025 N   0  0  0  0  0  0  0  0  0  0  0  0
   -2.1326    0.8652   -0.3707 C   0  0  0  0  0  0  0  0  0  0  0  0
   -3.6057    0.8131   -0.3312 C   0  0  0  0  0  0  0  0  0  0  0  0
   -4.0851   -0.1323    0.7464 C   0  0  0  0  0  0  0  0  0  0  0  0
   -3.6735   -1.4829    0.6856 N   0  0  0  0  0  0  0  0  0  0  0  0
   -2.4632   -2.1500    0.3675 C   0  0  0  0  0  0  0  0  0  0  0  0
   -1.6957   -1.5589   -0.7582 C   0  0  0  0  0  0  0  0  0  0  0  0
   -1.2345   -0.2073   -0.5242 C   0  0  0  0  0  0  0  0  0  0  0  0
   -4.6890   -2.4067    1.1169 C   0  0  0  0  0  0  0  0  0  0  0  0
   -4.4895   -2.7965    2.4216 N   0  0  0  0  0  0  0  0  0  0  0  0
   -5.3384   -3.6158    3.0066 C   0  0  0  0  0  0  0  0  0  0  0  0
   -6.4216   -4.0825    2.3196 C   0  0  0  0  0  0  0  0  0  0  0  0
   -6.6353   -3.7102    1.0319 C   0  0  0  0  0  0  0  0  0  0  0  0
   -5.7335   -2.8290    0.3814 C   0  0  0  0  0  0  0  0  0  0  0  0
   -5.9454   -2.4520   -1.0083 C   0  0  0  0  0  0  0  0  0  0  0  0
   -4.8949   -2.8012   -1.8618 F   0  0  0  0  0  0  0  0  0  0  0  0
   -6.4458   -1.2188   -1.2669 F   0  0  0  0  0  0  0  0  0  0  0  0
   -6.9774   -3.3343   -1.4724 F   0  0  0  0  0  0  0  0  0  0  0  0
    0.1609    3.6466    0.0107 N   0  0  0  0  0  0  0  0  0  0  0  0
   -0.7719    4.7349    0.1212 C   0  0  0  0  0  0  0  0  0  0  0  0
   -0.2330    6.0699   -0.2687 C   0  0  0  0  0  0  0  0  0  0  0  0
    1.0345    5.9769   -0.8507 O   0  0  0  0  0  0  0  0  0  0  0  0
    1.8559    5.3619    0.1120 C   0  0  0  0  0  0  0  0  0  0  0  0
    1.5708    3.8901    0.0892 C   0  0  0  0  0  0  0  0  0  0  0  0
    3.1085    0.2043   -1.1031 C   0  0  0  0  0  0  0  0  0  0  0  0
    4.5098    0.2324   -1.1159 C   0  0  0  0  0  0  0  0  0  0  0  0
    6.7524   -2.0474   -2.3732 H   0  0  0  0  0  0  0  0  0  0  0  0
    7.3151   -2.8289   -0.7976 H   0  0  0  0  0  0  0  0  0  0  0  0
    8.3860   -1.6478   -1.6824 H   0  0  0  0  0  0  0  0  0  0  0  0
    7.0707    0.2081   -1.1099 H   0  0  0  0  0  0  0  0  0  0  0  0
    6.6793   -1.3626    1.4420 H   0  0  0  0  0  0  0  0  0  0  0  0
    7.4661    0.2412    1.1078 H   0  0  0  0  0  0  0  0  0  0  0  0
    8.3249   -1.2906    0.7719 H   0  0  0  0  0  0  0  0  0  0  0  0
    5.1815   -2.7353    0.2462 H   0  0  0  0  0  0  0  0  0  0  0  0
    2.7024   -2.7945    0.2753 H   0  0  0  0  0  0  0  0  0  0  0  0
    0.6915   -2.0378   -0.5790 H   0  0  0  0  0  0  0  0  0  0  0  0
   -4.0803    0.5513   -1.2935 H   0  0  0  0  0  0  0  0  0  0  0  0
   -3.9705    1.8179   -0.0426 H   0  0  0  0  0  0  0  0  0  0  0  0
   -3.7002    0.2886    1.7576 H   0  0  0  0  0  0  0  0  0  0  0  0
   -5.1753    0.0379    0.8607 H   0  0  0  0  0  0  0  0  0  0  0  0
   -1.7587   -2.1710    1.2519 H   0  0  0  0  0  0  0  0  0  0  0  0
   -2.6125   -3.2446    0.1544 H   0  0  0  0  0  0  0  0  0  0  0  0
   -0.9345   -2.2745   -1.0638 H   0  0  0  0  0  0  0  0  0  0  0  0
   -2.3544   -1.4925   -1.6986 H   0  0  0  0  0  0  0  0  0  0  0  0
   -5.1392   -3.9015    4.0529 H   0  0  0  0  0  0  0  0  0  0  0  0
   -7.0955   -4.7608    2.8549 H   0  0  0  0  0  0  0  0  0  0  0  0
   -7.4743   -4.0568    0.4671 H   0  0  0  0  0  0  0  0  0  0  0  0
   -1.1336    4.7485    1.1739 H   0  0  0  0  0  0  0  0  0  0  0  0
   -1.6817    4.4922   -0.4828 H   0  0  0  0  0  0  0  0  0  0  0  0
   -0.1955    6.7144    0.6408 H   0  0  0  0  0  0  0  0  0  0  0  0
   -0.9084    6.5251   -1.0159 H   0  0  0  0  0  0  0  0  0  0  0  0
    1.6593    5.7694    1.1063 H   0  0  0  0  0  0  0  0  0  0  0  0
    2.9176    5.5452   -0.1621 H   0  0  0  0  0  0  0  0  0  0  0  0
    2.1088    3.3711   -0.7346 H   0  0  0  0  0  0  0  0  0  0  0  0
    1.9769    3.4697    1.0483 H   0  0  0  0  0  0  0  0  0  0  0  0
    2.5797    1.0490   -1.5105 H   0  0  0  0  0  0  0  0  0  0  0  0
    5.0045    1.1021   -1.5145 H   0  0  0  0  0  0  0  0  0  0  0  0
  1  2  1  0
  2  3  1  0
  2  4  1  0
  4  5  2  0
  5  6  1  0
  6  7  2  0
  7  8  1  0
  8  9  1  0
  9 10  2  0
 10 11  1  0
 11 12  2  0
 12 13  1  0
 13 14  1  0
 14 15  1  0
 15 16  1  0
 16 17  1  0
 17 18  1  0
 18 19  1  0
 16 20  1  0
 20 21  2  0
 21 22  1  0
 22 23  2  0
 23 24  1  0
 24 25  2  0
 25 26  1  0
 26 27  1  0
 26 28  1  0
 26 29  1  0
 11 30  1  0
 30 31  1  0
 31 32  1  0
 32 33  1  0
 33 34  1  0
 34 35  1  0
  7 36  1  0
 36 37  2  0
 37  4  1  0
 19  9  1  0
 25 20  1  0
 35 30  1  0
 19 13  2  0
  1 38  1  0
  1 39  1  0
  1 40  1  0
  2 41  1  0
  3 42  1  0
  3 43  1  0
  3 44  1  0
  5 45  1  0
  6 46  1  0
  8 47  1  0
 14 48  1  0
 14 49  1  0
 15 50  1  0
 15 51  1  0
 17 52  1  0
 17 53  1  0
 18 54  1  0
 18 55  1  0
 22 56  1  0
 23 57  1  0
 24 58  1  0
 31 59  1  0
 31 60  1  0
 32 61  1  0
 32 62  1  0
 34 63  1  0
 34 64  1  0
 35 65  1  0
 35 66  1  0
 36 67  1  0
 37 68  1  0
M  END
$$$$
[H]c1nc([H])c2c([H])c([H])c([H])c(N([H])C(=O)N([H])[C@]([H])(c3c([H])c([H])c(F)c(F)c3[H])C([H])([H])[H])c2c1[H]
     RDKit          3D

 39 41  0  0  0  0  0  0  0  0999 V2000
    3.0865   -1.8890    0.8629 C   0  0  0  0  0  0  0  0  0  0  0  0
    2.5102   -0.5213    0.5284 C   0  0  2  0  0  0  0  0  0  0  0  0
    1.2001   -0.7398    0.0164 N   0  0  0  0  0  0  0  0  0  0  0  0
    0.0934   -0.1692    0.7820 C   0  0  0  0  0  0  0  0  0  0  0  0
    0.3473    0.4626    1.8164 O   0  0  0  0  0  0  0  0  0  0  0  0
   -1.1958   -0.4095    0.2379 N   0  0  0  0  0  0  0  0  0  0  0  0
   -2.3786    0.0336    0.8140 C   0  0  0  0  0  0  0  0  0  0  0  0
   -2.4326    0.6008    2.0506 C   0  0  0  0  0  0  0  0  0  0  0  0
   -3.6533    1.0068    2.6159 C   0  0  0  0  0  0  0  0  0  0  0  0
   -4.8114    0.8342    1.9226 C   0  0  0  0  0  0  0  0  0  0  0  0
   -4.7983    0.2647    0.6703 C   0  0  0  0  0  0  0  0  0  0  0  0
   -5.9750    0.0951   -0.0322 C   0  0  0  0  0  0  0  0  0  0  0  0
   -5.9485   -0.4569   -1.2541 N   0  0  0  0  0  0  0  0  0  0  0  0
   -4.8095   -0.8575   -1.8327 C   0  0  0  0  0  0  0  0  0  0  0  0
   -3.5988   -0.6927   -1.1315 C   0  0  0  0  0  0  0  0  0  0  0  0
   -3.5857   -0.1320    0.1224 C   0  0  0  0  0  0  0  0  0  0  0  0
    3.4262    0.1176   -0.4337 C   0  0  0  0  0  0  0  0  0  0  0  0
    3.5204   -0.2625   -1.7510 C   0  0  0  0  0  0  0  0  0  0  0  0
    4.3948    0.3748   -2.5884 C   0  0  0  0  0  0  0  0  0  0  0  0
    5.1998    1.4145   -2.1204 C   0  0  0  0  0  0  0  0  0  0  0  0
    6.0605    2.0458   -2.9344 F   0  0  0  0  0  0  0  0  0  0  0  0
    5.1118    1.8052   -0.7928 C   0  0  0  0  0  0  0  0  0  0  0  0
    5.8790    2.8094   -0.3108 F   0  0  0  0  0  0  0  0  0  0  0  0
    4.2209    1.1430    0.0251 C   0  0  0  0  0  0  0  0  0  0  0  0
    4.1827   -1.8902    0.6663 H   0  0  0  0  0  0  0  0  0  0  0  0
    2.6230   -2.6467    0.2201 H   0  0  0  0  0  0  0  0  0  0  0  0
    2.9108   -2.0979    1.9290 H   0  0  0  0  0  0  0  0  0  0  0  0
    2.4829    0.0738    1.4653 H   0  0  0  0  0  0  0  0  0  0  0  0
    0.9965   -1.2664   -0.8447 H   0  0  0  0  0  0  0  0  0  0  0  0
   -1.2280   -0.9878   -0.6779 H   0  0  0  0  0  0  0  0  0  0  0  0
   -1.5670    0.7774    2.6991 H   0  0  0  0  0  0  0  0  0  0  0  0
   -3.6249    1.4564    3.6142 H   0  0  0  0  0  0  0  0  0  0  0  0
   -5.7615    1.1376    2.3357 H   0  0  0  0  0  0  0  0  0  0  0  0
   -6.9152    0.4149    0.4209 H   0  0  0  0  0  0  0  0  0  0  0  0
   -4.7870   -1.3016   -2.8159 H   0  0  0  0  0  0  0  0  0  0  0  0
   -2.7157   -1.0309   -1.6558 H   0  0  0  0  0  0  0  0  0  0  0  0
    2.8945   -1.0689   -2.1089 H   0  0  0  0  0  0  0  0  0  0  0  0
    4.4671    0.0757   -3.6194 H   0  0  0  0  0  0  0  0  0  0  0  0
    4.1783    1.4767    1.0634 H   0  0  0  0  0  0  0  0  0  0  0  0
  1  2  1  0
  2  3  1  0
  3  4  1  0
  4  5  2  0
  4  6  1  0
  6  7  1  0
  7  8  2  0
  8  9  1  0
  9 10  2  0
 10 11  1  0
 11 12  2  0
 12 13  1  0
 13 14  2  0
 14 15  1  0
 15 16  2  0
  2 17  1  0
 17 18  2  0
 18 19  1  0
 19 20  2  0
 20 21  1  0
 20 22  1  0
 22 23  1  0
 22 24  2  0
 16  7  1  0
 24 17  1  0
 16 11  1  0
  1 25  1  0
  1 26  1  0
  1 27  1  0
  2 28  1  1
  3 29  1  0
  6 30  1  0
  8 31  1  0
  9 32  1  0
 10 33  1  0
 12 34  1  0
 14 35  1  0
 15 36  1  0
 18 37  1  0
 19 38  1  0
 24 39  1  0
M  END
$$$$
