[H]c1nc(N([H])[H])c2c(-c3sc4c(OC([H])([H])[H])c([H])c(C([H])([H])[H])c([H])c4c3[H])c(C([H])([H])OC([H])([H])C([H])([H])[H])c(C(=O)N3C([H])([H])C([H])([H])OC([H])([H])C3([H])[H])n2n1
     RDKit          3D

 61 65  0  0  0  0  0  0  0  0999 V2000
   -1.5338   -3.8007   -4.2556 C   0  0  0  0  0  0  0  0  0  0  0  0
   -2.3255   -3.2793   -2.9885 C   0  0  0  0  0  0  0  0  0  0  0  0
   -1.7996   -2.2720   -2.5015 O   0  0  0  0  0  0  0  0  0  0  0  0
   -1.2470   -1.2037   -2.0128 C   0  0  0  0  0  0  0  0  0  0  0  0
   -1.1675   -1.1367   -0.5183 C   0  0  0  0  0  0  0  0  0  0  0  0
   -0.1309   -1.1597    0.2797 C   0  0  0  0  0  0  0  0  0  0  0  0
    1.2952   -0.7985   -0.0229 C   0  0  0  0  0  0  0  0  0  0  0  0
    1.7250    0.4940    0.4459 C   0  0  0  0  0  0  0  0  0  0  0  0
    2.9470    0.8719    0.2546 C   0  0  0  0  0  0  0  0  0  0  0  0
    3.5936    2.0698    0.7283 C   0  0  0  0  0  0  0  0  0  0  0  0
    4.9326    2.2744    0.5392 C   0  0  0  0  0  0  0  0  0  0  0  0
    5.4823    3.5471    1.1971 C   0  0  0  0  0  0  0  0  0  0  0  0
    5.7762    1.4217   -0.0841 C   0  0  0  0  0  0  0  0  0  0  0  0
    5.1386    0.2304   -0.5629 C   0  0  0  0  0  0  0  0  0  0  0  0
    5.8402   -0.7273   -1.2280 O   0  0  0  0  0  0  0  0  0  0  0  0
    7.2388   -0.6083   -1.3733 C   0  0  0  0  0  0  0  0  0  0  0  0
    3.7788   -0.0149   -0.3863 C   0  0  0  0  0  0  0  0  0  0  0  0
    2.6996   -1.3312   -0.6757 S   0  0  0  0  0  0  0  0  0  0  0  0
   -0.5568   -1.1111    1.6641 C   0  0  0  0  0  0  0  0  0  0  0  0
    0.2011   -1.2558    2.8337 C   0  0  0  0  0  0  0  0  0  0  0  0
    1.5850   -1.3914    2.7663 N   0  0  0  0  0  0  0  0  0  0  0  0
   -0.5064   -1.3399    3.9642 N   0  0  0  0  0  0  0  0  0  0  0  0
   -1.8196   -1.2970    3.9441 C   0  0  0  0  0  0  0  0  0  0  0  0
   -2.5538   -1.1472    2.7840 N   0  0  0  0  0  0  0  0  0  0  0  0
   -1.8985   -1.0334    1.6225 N   0  0  0  0  0  0  0  0  0  0  0  0
   -2.3158   -1.0080    0.3609 C   0  0  0  0  0  0  0  0  0  0  0  0
   -3.5151   -0.5554   -0.2729 C   0  0  0  0  0  0  0  0  0  0  0  0
   -3.9335   -0.9322   -1.4086 O   0  0  0  0  0  0  0  0  0  0  0  0
   -4.3577    0.4644    0.2963 N   0  0  0  0  0  0  0  0  0  0  0  0
   -4.6112    1.0850    1.5153 C   0  0  0  0  0  0  0  0  0  0  0  0
   -5.7140    2.1290    1.3219 C   0  0  0  0  0  0  0  0  0  0  0  0
   -5.1443    3.2704    0.7029 O   0  0  0  0  0  0  0  0  0  0  0  0
   -4.3442    2.7899   -0.3328 C   0  0  0  0  0  0  0  0  0  0  0  0
   -4.7389    1.4745   -0.8682 C   0  0  0  0  0  0  0  0  0  0  0  0
   -1.4563   -2.9586   -4.9777 H   0  0  0  0  0  0  0  0  0  0  0  0
   -0.5205   -4.0211   -3.8748 H   0  0  0  0  0  0  0  0  0  0  0  0
   -1.9801   -4.7000   -4.6728 H   0  0  0  0  0  0  0  0  0  0  0  0
   -3.3941   -3.3680   -3.2931 H   0  0  0  0  0  0  0  0  0  0  0  0
   -2.2487   -4.2476   -2.3288 H   0  0  0  0  0  0  0  0  0  0  0  0
   -0.2986   -0.8811   -2.5152 H   0  0  0  0  0  0  0  0  0  0  0  0
   -1.9741   -0.3016   -2.2375 H   0  0  0  0  0  0  0  0  0  0  0  0
    0.9122    1.1181    0.9598 H   0  0  0  0  0  0  0  0  0  0  0  0
    3.0059    2.8229    1.2457 H   0  0  0  0  0  0  0  0  0  0  0  0
    5.4042    3.3459    2.3221 H   0  0  0  0  0  0  0  0  0  0  0  0
    6.4939    3.7353    0.8805 H   0  0  0  0  0  0  0  0  0  0  0  0
    4.8033    4.3897    0.9996 H   0  0  0  0  0  0  0  0  0  0  0  0
    6.7831    1.5913   -0.2134 H   0  0  0  0  0  0  0  0  0  0  0  0
    7.5490   -1.4965   -1.9355 H   0  0  0  0  0  0  0  0  0  0  0  0
    7.6009    0.3635   -1.6503 H   0  0  0  0  0  0  0  0  0  0  0  0
    7.7845   -0.7771   -0.3610 H   0  0  0  0  0  0  0  0  0  0  0  0
    2.2650   -0.7219    3.1854 H   0  0  0  0  0  0  0  0  0  0  0  0
    2.0412   -2.2155    2.3146 H   0  0  0  0  0  0  0  0  0  0  0  0
   -2.2885   -1.3802    4.9433 H   0  0  0  0  0  0  0  0  0  0  0  0
   -5.0389    0.3904    2.2977 H   0  0  0  0  0  0  0  0  0  0  0  0
   -3.7671    1.6106    1.9744 H   0  0  0  0  0  0  0  0  0  0  0  0
   -6.0597    2.4819    2.3126 H   0  0  0  0  0  0  0  0  0  0  0  0
   -6.5525    1.7895    0.7436 H   0  0  0  0  0  0  0  0  0  0  0  0
   -3.3093    2.6794    0.1214 H   0  0  0  0  0  0  0  0  0  0  0  0
   -4.2621    3.5792   -1.1188 H   0  0  0  0  0  0  0  0  0  0  0  0
   -3.8676    1.2276   -1.6012 H   0  0  0  0  0  0  0  0  0  0  0  0
   -5.6453    1.2253   -1.2494 H   0  0  0  0  0  0  0  0  0  0  0  0
  1  2  1  0
  2  3  1  0
  3  4  1  0
  4  5  1  0
  5  6  1  0
  6  7  1  0
  7  8  2  0
  8  9  1  0
  9 10  2  0
 10 11  1  0
 11 12  1  0
 11 13  2  0
 13 14  1  0
 14 15  1  0
 15 16  1  0
 14 17  2  0
 17 18  1  0
  6 19  2  0
 19 20  1  0
 20 21  1  0
 20 22  2  0
 22 23  1  0
 23 24  2  0
 24 25  1  0
 25 26  1  0
 26 27  1  0
 27 28  2  0
 27 29  1  0
 29 30  1  0
 30 31  1  0
 31 32  1  0
 32 33  1  0
 33 34  1  0
 26  5  2  0
 34 29  1  0
 18  7  1  0
 25 19  1  0
 17  9  1  0
  1 35  1  0
  1 36  1  0
  1 37  1  0
  2 38  1  0
  2 39  1  0
  4 40  1  0
  4 41  1  0
  8 42  1  0
 10 43  1  0
 12 44  1  0
 12 45  1  0
 12 46  1  0
 13 47  1  0
 16 48  1  0
 16 49  1  0
 16 50  1  0
 21 51  1  0
 21 52  1  0
 23 53  1  0
 30 54  1  0
 30 55  1  0
 31 56  1  0
 31 57  1  0
 33 58  1  0
 33 59  1  0
 34 60  1  0
 34 61  1  0
M  END
$$$$
[H]OC(=O)c1nc(C(=O)c2c([H])c([H])c(O[H])c([H])c2[H])c2c([H])c(O[H])c(O[H])c([H])c2c1[H]
     RDKit          3D

 35 37  0  0  0  0  0  0  0  0999 V2000
   -2.2431    4.2234   -0.8089 O   0  0  0  0  0  0  0  0  0  0  0  0
   -1.1907    3.3736   -1.0323 C   0  0  0  0  0  0  0  0  0  0  0  0
   -0.1601    3.7845   -1.5934 O   0  0  0  0  0  0  0  0  0  0  0  0
   -1.2616    1.9757   -0.6163 C   0  0  0  0  0  0  0  0  0  0  0  0
   -2.4005    1.5127    0.0051 C   0  0  0  0  0  0  0  0  0  0  0  0
   -2.4963    0.1997    0.4094 C   0  0  0  0  0  0  0  0  0  0  0  0
   -3.6535   -0.2362    1.0434 C   0  0  0  0  0  0  0  0  0  0  0  0
   -3.7233   -1.5505    1.4504 C   0  0  0  0  0  0  0  0  0  0  0  0
   -4.8999   -1.9443    2.0806 O   0  0  0  0  0  0  0  0  0  0  0  0
   -2.6620   -2.3941    1.2253 C   0  0  0  0  0  0  0  0  0  0  0  0
   -2.7474   -3.7121    1.6410 O   0  0  0  0  0  0  0  0  0  0  0  0
   -1.4968   -1.9498    0.5850 C   0  0  0  0  0  0  0  0  0  0  0  0
   -1.4054   -0.6428    0.1690 C   0  0  0  0  0  0  0  0  0  0  0  0
   -0.2694   -0.1869   -0.4507 C   0  0  0  0  0  0  0  0  0  0  0  0
   -0.2469    1.1243   -0.8215 N   0  0  0  0  0  0  0  0  0  0  0  0
    0.8948   -1.0258   -0.7745 C   0  0  0  0  0  0  0  0  0  0  0  0
    0.8190   -2.1994   -1.1892 O   0  0  0  0  0  0  0  0  0  0  0  0
    2.2520   -0.4939   -0.6168 C   0  0  0  0  0  0  0  0  0  0  0  0
    3.2538   -1.0123   -1.3819 C   0  0  0  0  0  0  0  0  0  0  0  0
    4.5394   -0.5286   -1.2493 C   0  0  0  0  0  0  0  0  0  0  0  0
    4.7914    0.4797   -0.3372 C   0  0  0  0  0  0  0  0  0  0  0  0
    6.0780    1.0019   -0.1676 O   0  0  0  0  0  0  0  0  0  0  0  0
    3.7828    1.0099    0.4412 C   0  0  0  0  0  0  0  0  0  0  0  0
    2.5111    0.5032    0.2827 C   0  0  0  0  0  0  0  0  0  0  0  0
   -3.0939    4.2145   -1.3544 H   0  0  0  0  0  0  0  0  0  0  0  0
   -3.2570    2.1564    0.1985 H   0  0  0  0  0  0  0  0  0  0  0  0
   -4.4672    0.4620    1.2009 H   0  0  0  0  0  0  0  0  0  0  0  0
   -5.0337   -2.8916    2.4103 H   0  0  0  0  0  0  0  0  0  0  0  0
   -2.0035   -4.3821    1.5059 H   0  0  0  0  0  0  0  0  0  0  0  0
   -0.6773   -2.6140    0.4315 H   0  0  0  0  0  0  0  0  0  0  0  0
    3.0938   -1.8122   -2.1169 H   0  0  0  0  0  0  0  0  0  0  0  0
    5.3298   -0.9479   -1.8622 H   0  0  0  0  0  0  0  0  0  0  0  0
    6.3334    1.7904   -0.7480 H   0  0  0  0  0  0  0  0  0  0  0  0
    3.9942    1.7967    1.1495 H   0  0  0  0  0  0  0  0  0  0  0  0
    1.7159    0.9159    0.8913 H   0  0  0  0  0  0  0  0  0  0  0  0
  1  2  1  0
  2  3  2  0
  2  4  1  0
  4  5  2  0
  5  6  1  0
  6  7  2  0
  7  8  1  0
  8  9  1  0
  8 10  2  0
 10 11  1  0
 10 12  1  0
 12 13  2  0
 13 14  1  0
 14 15  2  0
 14 16  1  0
 16 17  2  0
 16 18  1  0
 18 19  2  0
 19 20  1  0
 20 21  2  0
 21 22  1  0
 21 23  1  0
 23 24  2  0
 15  4  1  0
 24 18  1  0
 13  6  1  0
  1 25  1  0
  5 26  1  0
  7 27  1  0
  9 28  1  0
 11 29  1  0
 12 30  1  0
 19 31  1  0
 20 32  1  0
 22 33  1  0
 23 34  1  0
 24 35  1  0
M  END
$$$$
[H]c1c([H])c([H])c2c(c1[H])c(C1=C(c3c([H])n(C([H])([H])[H])c4c([H])c([H])c([H])c([H])c34)C(=O)N([H])C1=O)c([H])n2[H]
     RDKit          3D

 41 45  0  0  0  0  0  0  0  0999 V2000
    2.5045   -2.9689   -0.2720 C   0  0  0  0  0  0  0  0  0  0  0  0
    2.1817   -1.5711   -0.0357 N   0  0  0  0  0  0  0  0  0  0  0  0
    1.0541   -1.1102    0.5827 C   0  0  0  0  0  0  0  0  0  0  0  0
    1.0580    0.2355    0.6497 C   0  0  0  0  0  0  0  0  0  0  0  0
    0.1321    1.2574    1.1613 C   0  0  0  0  0  0  0  0  0  0  0  0
   -1.0977    1.5105    0.7833 C   0  0  0  0  0  0  0  0  0  0  0  0
   -1.5841    2.6426    1.6215 C   0  0  0  0  0  0  0  0  0  0  0  0
   -2.7235    3.1288    1.5075 O   0  0  0  0  0  0  0  0  0  0  0  0
   -0.5717    3.0175    2.4927 N   0  0  0  0  0  0  0  0  0  0  0  0
    0.5299    2.1870    2.2548 C   0  0  0  0  0  0  0  0  0  0  0  0
    1.6628    2.1385    2.7856 O   0  0  0  0  0  0  0  0  0  0  0  0
   -1.9492    0.8655   -0.2257 C   0  0  0  0  0  0  0  0  0  0  0  0
   -2.2941    1.4737   -1.4391 C   0  0  0  0  0  0  0  0  0  0  0  0
   -3.1410    0.6688   -2.1090 N   0  0  0  0  0  0  0  0  0  0  0  0
   -3.3720   -0.4456   -1.3908 C   0  0  0  0  0  0  0  0  0  0  0  0
   -4.1681   -1.5303   -1.6566 C   0  0  0  0  0  0  0  0  0  0  0  0
   -4.2303   -2.5347   -0.7155 C   0  0  0  0  0  0  0  0  0  0  0  0
   -3.5090   -2.4329    0.4465 C   0  0  0  0  0  0  0  0  0  0  0  0
   -2.7129   -1.3370    0.7001 C   0  0  0  0  0  0  0  0  0  0  0  0
   -2.6246   -0.3186   -0.2126 C   0  0  0  0  0  0  0  0  0  0  0  0
    2.2658    0.6194    0.0323 C   0  0  0  0  0  0  0  0  0  0  0  0
    2.8492    1.8393   -0.2204 C   0  0  0  0  0  0  0  0  0  0  0  0
    4.0772    1.9185   -0.8699 C   0  0  0  0  0  0  0  0  0  0  0  0
    4.7103    0.7636   -1.2607 C   0  0  0  0  0  0  0  0  0  0  0  0
    4.1516   -0.4745   -1.0231 C   0  0  0  0  0  0  0  0  0  0  0  0
    2.9350   -0.5151   -0.3790 C   0  0  0  0  0  0  0  0  0  0  0  0
    3.6089   -3.1033   -0.3703 H   0  0  0  0  0  0  0  0  0  0  0  0
    1.9534   -3.3375   -1.1628 H   0  0  0  0  0  0  0  0  0  0  0  0
    2.2091   -3.5781    0.6331 H   0  0  0  0  0  0  0  0  0  0  0  0
    0.2833   -1.7475    0.9669 H   0  0  0  0  0  0  0  0  0  0  0  0
   -0.5698    3.7813    3.2249 H   0  0  0  0  0  0  0  0  0  0  0  0
   -1.9310    2.4394   -1.7788 H   0  0  0  0  0  0  0  0  0  0  0  0
   -3.5706    0.8713   -3.0614 H   0  0  0  0  0  0  0  0  0  0  0  0
   -4.7514   -1.6589   -2.5498 H   0  0  0  0  0  0  0  0  0  0  0  0
   -4.8513   -3.4318   -0.8717 H   0  0  0  0  0  0  0  0  0  0  0  0
   -3.5452   -3.2194    1.2070 H   0  0  0  0  0  0  0  0  0  0  0  0
   -2.1384   -1.2349    1.6010 H   0  0  0  0  0  0  0  0  0  0  0  0
    2.3392    2.7277    0.0837 H   0  0  0  0  0  0  0  0  0  0  0  0
    4.4745    2.9240   -1.0353 H   0  0  0  0  0  0  0  0  0  0  0  0
    5.6548    0.8800   -1.7576 H   0  0  0  0  0  0  0  0  0  0  0  0
    4.7006   -1.3400   -1.3551 H   0  0  0  0  0  0  0  0  0  0  0  0
  1  2  1  0
  2  3  1  0
  3  4  2  0
  4  5  1  0
  5  6  2  0
  6  7  1  0
  7  8  2  0
  7  9  1  0
  9 10  1  0
 10 11  2  0
  6 12  1  0
 12 13  2  0
 13 14  1  0
 14 15  1  0
 15 16  2  0
 16 17  1  0
 17 18  2  0
 18 19  1  0
 19 20  2  0
  4 21  1  0
 21 22  2  0
 22 23  1  0
 23 24  2  0
 24 25  1  0
 25 26  2  0
 26  2  1  0
 10  5  1  0
 20 12  1  0
 26 21  1  0
 20 15  1  0
  1 27  1  0
  1 28  1  0
  1 29  1  0
  3 30  1  0
  9 31  1  0
 13 32  1  0
 14 33  1  0
 16 34  1  0
 17 35  1  0
 18 36  1  0
 19 37  1  0
 22 38  1  0
 23 39  1  0
 24 40  1  0
 25 41  1  0
M  END
$$$$
[H]OC([H])([H])C([H])(C(=O)N([H])[C@]([H])(C(=O)N([H])[C@]([H])(C(=O)N([H])[C@]([H])(C(=O)N([H])[C@]([H])(C(=O)N([H])[C@]([H])(C(=O)N([H])[C@]([H])(C(=O)N([H])[C@]([H])(C(=O)N([H])[H])C([H])([H])C([H])(C([H])([H])[H])C([H])([H])[H])C([H])([H])O[H])C([H])([H])O[H])C([H])([H])O[H])C([H])([H])O[H])C([H])([H])O[H])C([H])([H])O[H])C([H])([H])O[H]
     RDKit          3D

102101  0  0  0  0  0  0  0  0999 V2000
  -12.8271   -0.0745   -1.4344 C   0  0  0  0  0  0  0  0  0  0  0  0
  -11.7482    0.9700   -1.3038 C   0  0  0  0  0  0  0  0  0  0  0  0
  -12.3530    2.2572   -1.8857 C   0  0  0  0  0  0  0  0  0  0  0  0
  -11.3153    1.2927    0.0779 C   0  0  0  0  0  0  0  0  0  0  0  0
  -10.7441    0.1821    0.8854 C   0  0  2  0  0  0  0  0  0  0  0  0
   -9.5831   -0.4199    0.2787 N   0  0  0  0  0  0  0  0  0  0  0  0
   -8.3192   -0.4407    0.9146 C   0  0  0  0  0  0  0  0  0  0  0  0
   -8.2340    0.0921    2.0554 O   0  0  0  0  0  0  0  0  0  0  0  0
   -7.1822   -1.0705    0.2365 C   0  0  2  0  0  0  0  0  0  0  0  0
   -7.4892   -2.4472   -0.3023 C   0  0  0  0  0  0  0  0  0  0  0  0
   -7.6308   -3.4087    0.6655 O   0  0  0  0  0  0  0  0  0  0  0  0
   -5.9583   -1.1012    0.9760 N   0  0  0  0  0  0  0  0  0  0  0  0
   -4.7799   -0.3855    0.7030 C   0  0  0  0  0  0  0  0  0  0  0  0
   -4.7258    0.3916   -0.2723 O   0  0  0  0  0  0  0  0  0  0  0  0
   -3.5840   -0.5459    1.5702 C   0  0  2  0  0  0  0  0  0  0  0  0
   -3.8283   -0.2312    3.0093 C   0  0  0  0  0  0  0  0  0  0  0  0
   -2.5961   -0.4206    3.6766 O   0  0  0  0  0  0  0  0  0  0  0  0
   -2.5561    0.3658    1.0766 N   0  0  0  0  0  0  0  0  0  0  0  0
   -1.4405   -0.0278    0.3185 C   0  0  0  0  0  0  0  0  0  0  0  0
   -1.3153   -1.2584    0.0283 O   0  0  0  0  0  0  0  0  0  0  0  0
   -0.4405    0.9478   -0.1285 C   0  0  2  0  0  0  0  0  0  0  0  0
   -0.9598    2.0732   -0.9456 C   0  0  0  0  0  0  0  0  0  0  0  0
   -1.9528    2.8081   -0.3653 O   0  0  0  0  0  0  0  0  0  0  0  0
    0.6151    0.3048   -0.9220 N   0  0  0  0  0  0  0  0  0  0  0  0
    1.8420   -0.0459   -0.3422 C   0  0  0  0  0  0  0  0  0  0  0  0
    2.0271    0.1782    0.8781 O   0  0  0  0  0  0  0  0  0  0  0  0
    2.8831   -0.6735   -1.2146 C   0  0  2  0  0  0  0  0  0  0  0  0
    2.2888   -1.7878   -2.0136 C   0  0  0  0  0  0  0  0  0  0  0  0
    3.1790   -2.2946   -2.9656 O   0  0  0  0  0  0  0  0  0  0  0  0
    4.0516   -1.0714   -0.5064 N   0  0  0  0  0  0  0  0  0  0  0  0
    5.2184   -0.3303   -0.2579 C   0  0  0  0  0  0  0  0  0  0  0  0
    5.3147    0.8411   -0.6637 O   0  0  0  0  0  0  0  0  0  0  0  0
    6.3406   -0.9396    0.4896 C   0  0  2  0  0  0  0  0  0  0  0  0
    5.9327   -1.6085    1.7702 C   0  0  0  0  0  0  0  0  0  0  0  0
    7.0143   -2.3188    2.3283 O   0  0  0  0  0  0  0  0  0  0  0  0
    7.4123   -0.0122    0.7677 N   0  0  0  0  0  0  0  0  0  0  0  0
    8.6667   -0.0538    0.1630 C   0  0  0  0  0  0  0  0  0  0  0  0
    8.9682   -0.9099   -0.6967 O   0  0  0  0  0  0  0  0  0  0  0  0
    9.7193    0.9495    0.5359 C   0  0  2  0  0  0  0  0  0  0  0  0
    9.2261    2.3470    0.5466 C   0  0  0  0  0  0  0  0  0  0  0  0
    8.9428    2.8539   -0.7146 O   0  0  0  0  0  0  0  0  0  0  0  0
   10.9299    0.7557   -0.2101 N   0  0  0  0  0  0  0  0  0  0  0  0
   12.0782    0.1013    0.2543 C   0  0  0  0  0  0  0  0  0  0  0  0
   12.0556   -0.3639    1.4239 O   0  0  0  0  0  0  0  0  0  0  0  0
   13.3039   -0.0563   -0.5806 C   0  0  0  0  0  0  0  0  0  0  0  0
   12.9661   -0.7162   -1.9044 C   0  0  0  0  0  0  0  0  0  0  0  0
   12.4134   -1.9722   -1.7223 O   0  0  0  0  0  0  0  0  0  0  0  0
   13.9499    1.2864   -0.7947 C   0  0  0  0  0  0  0  0  0  0  0  0
   15.1004    1.1565   -1.5709 O   0  0  0  0  0  0  0  0  0  0  0  0
  -11.7476   -0.7818    1.3718 C   0  0  0  0  0  0  0  0  0  0  0  0
  -12.9289   -0.3719    2.0310 N   0  0  0  0  0  0  0  0  0  0  0  0
  -11.5482   -2.0058    1.1978 O   0  0  0  0  0  0  0  0  0  0  0  0
  -13.6962    0.1180   -0.8014 H   0  0  0  0  0  0  0  0  0  0  0  0
  -12.4258   -1.1086   -1.3872 H   0  0  0  0  0  0  0  0  0  0  0  0
  -13.2504   -0.0190   -2.4936 H   0  0  0  0  0  0  0  0  0  0  0  0
  -10.8879    0.7226   -1.9757 H   0  0  0  0  0  0  0  0  0  0  0  0
  -11.6260    3.0641   -1.9701 H   0  0  0  0  0  0  0  0  0  0  0  0
  -13.1103    2.5918   -1.1212 H   0  0  0  0  0  0  0  0  0  0  0  0
  -12.9308    2.0318   -2.7938 H   0  0  0  0  0  0  0  0  0  0  0  0
  -10.5945    2.1392    0.0109 H   0  0  0  0  0  0  0  0  0  0  0  0
  -12.1980    1.6983    0.6304 H   0  0  0  0  0  0  0  0  0  0  0  0
  -10.3596    0.6814    1.8474 H   0  0  0  0  0  0  0  0  0  0  0  0
   -9.6977   -0.8498   -0.6594 H   0  0  0  0  0  0  0  0  0  0  0  0
   -6.9748   -0.4212   -0.6672 H   0  0  0  0  0  0  0  0  0  0  0  0
   -6.6028   -2.7471   -0.9273 H   0  0  0  0  0  0  0  0  0  0  0  0
   -8.3690   -2.4630   -0.9573 H   0  0  0  0  0  0  0  0  0  0  0  0
   -8.4974   -3.8418    0.7216 H   0  0  0  0  0  0  0  0  0  0  0  0
   -5.9738   -1.7459    1.8297 H   0  0  0  0  0  0  0  0  0  0  0  0
   -3.1945   -1.5941    1.5009 H   0  0  0  0  0  0  0  0  0  0  0  0
   -4.0818    0.8308    3.1903 H   0  0  0  0  0  0  0  0  0  0  0  0
   -4.5199   -0.9501    3.5051 H   0  0  0  0  0  0  0  0  0  0  0  0
   -2.0553    0.3868    3.6831 H   0  0  0  0  0  0  0  0  0  0  0  0
   -2.7270    1.3774    1.3578 H   0  0  0  0  0  0  0  0  0  0  0  0
    0.0414    1.3449    0.8070 H   0  0  0  0  0  0  0  0  0  0  0  0
   -0.1068    2.7625   -1.1379 H   0  0  0  0  0  0  0  0  0  0  0  0
   -1.3306    1.6276   -1.9120 H   0  0  0  0  0  0  0  0  0  0  0  0
   -1.8595    3.7558   -0.5824 H   0  0  0  0  0  0  0  0  0  0  0  0
    0.4202    0.1262   -1.9143 H   0  0  0  0  0  0  0  0  0  0  0  0
    3.1303    0.1702   -1.9432 H   0  0  0  0  0  0  0  0  0  0  0  0
    1.3961   -1.4495   -2.6171 H   0  0  0  0  0  0  0  0  0  0  0  0
    2.0106   -2.6428   -1.3577 H   0  0  0  0  0  0  0  0  0  0  0  0
    2.8135   -2.3447   -3.8674 H   0  0  0  0  0  0  0  0  0  0  0  0
    4.0276   -2.0685   -0.1211 H   0  0  0  0  0  0  0  0  0  0  0  0
    6.7312   -1.7835   -0.1681 H   0  0  0  0  0  0  0  0  0  0  0  0
    5.0637   -2.2911    1.6296 H   0  0  0  0  0  0  0  0  0  0  0  0
    5.6286   -0.8785    2.5491 H   0  0  0  0  0  0  0  0  0  0  0  0
    7.4471   -2.8416    1.6021 H   0  0  0  0  0  0  0  0  0  0  0  0
    7.2192    0.7441    1.4830 H   0  0  0  0  0  0  0  0  0  0  0  0
    9.9653    0.6567    1.6069 H   0  0  0  0  0  0  0  0  0  0  0  0
    9.9690    2.9724    1.0917 H   0  0  0  0  0  0  0  0  0  0  0  0
    8.3019    2.4119    1.1529 H   0  0  0  0  0  0  0  0  0  0  0  0
    8.0310    3.1898   -0.8340 H   0  0  0  0  0  0  0  0  0  0  0  0
   10.9546    1.1477   -1.1990 H   0  0  0  0  0  0  0  0  0  0  0  0
   14.0533   -0.6963   -0.0962 H   0  0  0  0  0  0  0  0  0  0  0  0
   13.8954   -0.8275   -2.4861 H   0  0  0  0  0  0  0  0  0  0  0  0
   12.1886   -0.1137   -2.4456 H   0  0  0  0  0  0  0  0  0  0  0  0
   12.4554   -2.2121   -0.7533 H   0  0  0  0  0  0  0  0  0  0  0  0
   14.2687    1.6725    0.2030 H   0  0  0  0  0  0  0  0  0  0  0  0
   13.2632    2.0240   -1.2878 H   0  0  0  0  0  0  0  0  0  0  0  0
   15.8336    0.8940   -0.9582 H   0  0  0  0  0  0  0  0  0  0  0  0
  -13.1810   -0.8198    2.9143 H   0  0  0  0  0  0  0  0  0  0  0  0
  -13.5098    0.3710    1.6063 H   0  0  0  0  0  0  0  0  0  0  0  0
  1  2  1  0
  2  3  1  0
  2  4  1  0
  4  5  1  0
  5  6  1  0
  6  7  1  0
  7  8  2  0
  7  9  1  0
  9 10  1  0
 10 11  1  0
  9 12  1  0
 12 13  1  0
 13 14  2  0
 13 15  1  0
 15 16  1  0
 16 17  1  0
 15 18  1  0
 18 19  1  0
 19 20  2  0
 19 21  1  0
 21 22  1  0
 22 23  1  0
 21 24  1  0
 24 25  1  0
 25 26  2  0
 25 27  1  0
 27 28  1  0
 28 29  1  0
 27 30  1  0
 30 31  1  0
 31 32  2  0
 31 33  1  0
 33 34  1  0
 34 35  1  0
 33 36  1  0
 36 37  1  0
 37 38  2  0
 37 39  1  0
 39 40  1  0
 40 41  1  0
 39 42  1  0
 42 43  1  0
 43 44  2  0
 43 45  1  0
 45 46  1  0
 46 47  1  0
 45 48  1  0
 48 49  1  0
  5 50  1  0
 50 51  1  0
 50 52  2  0
  1 53  1  0
  1 54  1  0
  1 55  1  0
  2 56  1  0
  3 57  1  0
  3 58  1  0
  3 59  1  0
  4 60  1  0
  4 61  1  0
  5 62  1  1
  6 63  1  0
  9 64  1  6
 10 65  1  0
 10 66  1  0
 11 67  1  0
 12 68  1  0
 15 69  1  1
 16 70  1  0
 16 71  1  0
 17 72  1  0
 18 73  1  0
 21 74  1  1
 22 75  1  0
 22 76  1  0
 23 77  1  0
 24 78  1  0
 27 79  1  6
 28 80  1  0
 28 81  1  0
 29 82  1  0
 30 83  1  0
 33 84  1  6
 34 85  1  0
 34 86  1  0
 35 87  1  0
 36 88  1  0
 39 89  1  1
 40 90  1  0
 40 91  1  0
 41 92  1  0
 42 93  1  0
 45 94  1  0
 46 95  1  0
 46 96  1  0
 47 97  1  0
 48 98  1  0
 48 99  1  0
 49100  1  0
 51101  1  0
 51102  1  0
M  END
$$$$
[H]N=C(N([H])[H])N([H])C([H])([H])C([H])([H])C([H])([H])[C@@]([H])(C(=O)N([H])[C@]([H])(C(=O)N([H])[C@]([H])(C(=O)N([H])[C@]([H])(C(=O)N([H])[H])C([H])([H])O[H])C([H])([H])C([H])([H])C([H])([H])N=C(N([H])[H])N([H])[H])C([H])([H])c1c([H])c([H])c([H])c([H])c1[H])N([H])C(=O)[C@@]([H])(N([H])[H])C([H])([H])c1c([H])c([H])c(O[H])c([H])c1[H]
     RDKit          3D

102103  0  0  0  0  0  0  0  0999 V2000
    0.6596    3.2384    2.6456 N   0  0  0  0  0  0  0  0  0  0  0  0
    1.0359    3.8853    1.4488 C   0  0  0  0  0  0  0  0  0  0  0  0
    0.1588    4.2288    0.5920 N   0  0  0  0  0  0  0  0  0  0  0  0
    2.4242    4.1765    1.1891 N   0  0  0  0  0  0  0  0  0  0  0  0
    2.8211    4.7573   -0.0259 C   0  0  0  0  0  0  0  0  0  0  0  0
    2.8224    3.9681   -1.2834 C   0  0  0  0  0  0  0  0  0  0  0  0
    3.7402    2.8268   -1.3752 C   0  0  0  0  0  0  0  0  0  0  0  0
    3.4815    1.6348   -0.5033 C   0  0  2  0  0  0  0  0  0  0  0  0
    4.6470    0.6975   -0.7630 N   0  0  0  0  0  0  0  0  0  0  0  0
    5.5697    0.3947    0.2260 C   0  0  0  0  0  0  0  0  0  0  0  0
    5.4312    0.9214    1.3803 O   0  0  0  0  0  0  0  0  0  0  0  0
    6.7018   -0.5110   -0.0055 C   0  0  1  0  0  0  0  0  0  0  0  0
    7.5519   -0.5311    1.1790 N   0  0  0  0  0  0  0  0  0  0  0  0
    6.1884   -1.9491   -0.1664 C   0  0  0  0  0  0  0  0  0  0  0  0
    7.3183   -2.8867   -0.3854 C   0  0  0  0  0  0  0  0  0  0  0  0
    7.9432   -3.5028    0.7061 C   0  0  0  0  0  0  0  0  0  0  0  0
    8.9789   -4.3833    0.5766 C   0  0  0  0  0  0  0  0  0  0  0  0
    9.4533   -4.6981   -0.6940 C   0  0  0  0  0  0  0  0  0  0  0  0
   10.5053   -5.5932   -0.8261 O   0  0  0  0  0  0  0  0  0  0  0  0
    8.8557   -4.1039   -1.7958 C   0  0  0  0  0  0  0  0  0  0  0  0
    7.8175   -3.2252   -1.6173 C   0  0  0  0  0  0  0  0  0  0  0  0
    2.3201    0.8506   -1.0102 C   0  0  0  0  0  0  0  0  0  0  0  0
    2.5167    0.3240   -2.1660 O   0  0  0  0  0  0  0  0  0  0  0  0
    1.0918    0.6181   -0.4125 N   0  0  0  0  0  0  0  0  0  0  0  0
    0.0519   -0.1705   -1.0823 C   0  0  1  0  0  0  0  0  0  0  0  0
    0.2437   -1.6444   -0.7345 C   0  0  0  0  0  0  0  0  0  0  0  0
    0.1611   -1.9452    0.6885 C   0  0  0  0  0  0  0  0  0  0  0  0
   -1.0498   -2.3043    1.2372 C   0  0  0  0  0  0  0  0  0  0  0  0
   -1.2136   -2.6041    2.5715 C   0  0  0  0  0  0  0  0  0  0  0  0
   -0.1180   -2.5494    3.4285 C   0  0  0  0  0  0  0  0  0  0  0  0
    1.1061   -2.1934    2.9074 C   0  0  0  0  0  0  0  0  0  0  0  0
    1.2264   -1.9005    1.5634 C   0  0  0  0  0  0  0  0  0  0  0  0
   -1.2894    0.2851   -0.7712 C   0  0  0  0  0  0  0  0  0  0  0  0
   -1.4355    1.1479    0.1326 O   0  0  0  0  0  0  0  0  0  0  0  0
   -2.4391   -0.1874   -1.4301 N   0  0  0  0  0  0  0  0  0  0  0  0
   -3.7798    0.3278   -1.0327 C   0  0  1  0  0  0  0  0  0  0  0  0
   -4.1062    1.4862   -1.9591 C   0  0  0  0  0  0  0  0  0  0  0  0
   -5.3836    2.1815   -1.7206 C   0  0  0  0  0  0  0  0  0  0  0  0
   -5.3826    2.8083   -0.3269 C   0  0  0  0  0  0  0  0  0  0  0  0
   -6.6027    3.5153   -0.0280 N   0  0  0  0  0  0  0  0  0  0  0  0
   -7.0304    3.5145    1.1791 C   0  0  0  0  0  0  0  0  0  0  0  0
   -6.3109    2.8321    2.1739 N   0  0  0  0  0  0  0  0  0  0  0  0
   -8.2126    4.1940    1.4960 N   0  0  0  0  0  0  0  0  0  0  0  0
   -4.7202   -0.7630   -1.1061 C   0  0  0  0  0  0  0  0  0  0  0  0
   -4.4081   -1.7774   -1.8302 O   0  0  0  0  0  0  0  0  0  0  0  0
   -5.9773   -0.8726   -0.4690 N   0  0  0  0  0  0  0  0  0  0  0  0
   -6.8711   -2.0098   -0.6218 C   0  0  1  0  0  0  0  0  0  0  0  0
   -6.8133   -2.9687    0.5414 C   0  0  0  0  0  0  0  0  0  0  0  0
   -7.7074   -4.0084    0.2793 O   0  0  0  0  0  0  0  0  0  0  0  0
   -8.2152   -1.5217   -0.9170 C   0  0  0  0  0  0  0  0  0  0  0  0
   -9.3538   -2.3341   -1.1376 N   0  0  0  0  0  0  0  0  0  0  0  0
   -8.4144   -0.2634   -0.9885 O   0  0  0  0  0  0  0  0  0  0  0  0
   -0.1846    2.6579    2.7895 H   0  0  0  0  0  0  0  0  0  0  0  0
    1.3217    3.3690    3.4677 H   0  0  0  0  0  0  0  0  0  0  0  0
   -0.8424    4.0414    0.7566 H   0  0  0  0  0  0  0  0  0  0  0  0
    3.1219    3.9386    1.9316 H   0  0  0  0  0  0  0  0  0  0  0  0
    3.8279    5.2713    0.1368 H   0  0  0  0  0  0  0  0  0  0  0  0
    2.1407    5.6647   -0.1838 H   0  0  0  0  0  0  0  0  0  0  0  0
    3.0156    4.6693   -2.1590 H   0  0  0  0  0  0  0  0  0  0  0  0
    1.7540    3.5817   -1.4138 H   0  0  0  0  0  0  0  0  0  0  0  0
    4.7619    3.2139   -1.0228 H   0  0  0  0  0  0  0  0  0  0  0  0
    3.9408    2.5035   -2.4378 H   0  0  0  0  0  0  0  0  0  0  0  0
    3.5163    1.8774    0.5286 H   0  0  0  0  0  0  0  0  0  0  0  0
    4.6833    0.3210   -1.7094 H   0  0  0  0  0  0  0  0  0  0  0  0
    7.2664   -0.2338   -0.9215 H   0  0  0  0  0  0  0  0  0  0  0  0
    7.3771    0.3531    1.6924 H   0  0  0  0  0  0  0  0  0  0  0  0
    8.5407   -0.5894    0.8079 H   0  0  0  0  0  0  0  0  0  0  0  0
    5.5522   -2.0100   -1.0710 H   0  0  0  0  0  0  0  0  0  0  0  0
    5.6502   -2.2690    0.7540 H   0  0  0  0  0  0  0  0  0  0  0  0
    7.5575   -3.2414    1.6976 H   0  0  0  0  0  0  0  0  0  0  0  0
    9.4326   -4.8352    1.4358 H   0  0  0  0  0  0  0  0  0  0  0  0
   10.3188   -6.5965   -0.9232 H   0  0  0  0  0  0  0  0  0  0  0  0
    9.2168   -4.3424   -2.7834 H   0  0  0  0  0  0  0  0  0  0  0  0
    7.3791   -2.7829   -2.5087 H   0  0  0  0  0  0  0  0  0  0  0  0
    0.8650    0.9794    0.5222 H   0  0  0  0  0  0  0  0  0  0  0  0
    0.2558   -0.1162   -2.1605 H   0  0  0  0  0  0  0  0  0  0  0  0
    1.2695   -1.8994   -1.0877 H   0  0  0  0  0  0  0  0  0  0  0  0
   -0.4434   -2.2179   -1.3662 H   0  0  0  0  0  0  0  0  0  0  0  0
   -1.9586   -2.3756    0.6325 H   0  0  0  0  0  0  0  0  0  0  0  0
   -2.1552   -2.8909    3.0274 H   0  0  0  0  0  0  0  0  0  0  0  0
   -0.2344   -2.7861    4.4966 H   0  0  0  0  0  0  0  0  0  0  0  0
    1.9819   -2.1420    3.5382 H   0  0  0  0  0  0  0  0  0  0  0  0
    2.1886   -1.6273    1.2064 H   0  0  0  0  0  0  0  0  0  0  0  0
   -2.3652   -0.8838   -2.1821 H   0  0  0  0  0  0  0  0  0  0  0  0
   -3.6669    0.7520   -0.0430 H   0  0  0  0  0  0  0  0  0  0  0  0
   -4.1210    1.1011   -3.0201 H   0  0  0  0  0  0  0  0  0  0  0  0
   -3.2843    2.2410   -1.9364 H   0  0  0  0  0  0  0  0  0  0  0  0
   -6.2875    1.6175   -1.9344 H   0  0  0  0  0  0  0  0  0  0  0  0
   -5.3933    3.0768   -2.4151 H   0  0  0  0  0  0  0  0  0  0  0  0
   -4.5295    3.5158   -0.2428 H   0  0  0  0  0  0  0  0  0  0  0  0
   -5.2280    1.9760    0.3880 H   0  0  0  0  0  0  0  0  0  0  0  0
   -5.7628    3.2712    2.9461 H   0  0  0  0  0  0  0  0  0  0  0  0
   -6.3163    1.7825    2.1499 H   0  0  0  0  0  0  0  0  0  0  0  0
   -9.0983    3.6732    1.6067 H   0  0  0  0  0  0  0  0  0  0  0  0
   -8.2178    5.2218    1.6233 H   0  0  0  0  0  0  0  0  0  0  0  0
   -6.3026   -0.1097    0.1594 H   0  0  0  0  0  0  0  0  0  0  0  0
   -6.4647   -2.5821   -1.4935 H   0  0  0  0  0  0  0  0  0  0  0  0
   -5.7821   -3.3875    0.5869 H   0  0  0  0  0  0  0  0  0  0  0  0
   -7.1218   -2.4586    1.4684 H   0  0  0  0  0  0  0  0  0  0  0  0
   -7.5769   -4.4027   -0.6298 H   0  0  0  0  0  0  0  0  0  0  0  0
   -9.8153   -2.4525   -2.0793 H   0  0  0  0  0  0  0  0  0  0  0  0
   -9.7722   -2.8503   -0.3268 H   0  0  0  0  0  0  0  0  0  0  0  0
  1  2  1  0
  2  3  2  3
  2  4  1  0
  4  5  1  0
  5  6  1  0
  6  7  1  0
  7  8  1  0
  8  9  1  0
  9 10  1  0
 10 11  2  0
 10 12  1  0
 12 13  1  0
 12 14  1  0
 14 15  1  0
 15 16  2  0
 16 17  1  0
 17 18  2  0
 18 19  1  0
 18 20  1  0
 20 21  2  0
  8 22  1  0
 22 23  2  0
 22 24  1  0
 24 25  1  0
 25 26  1  0
 26 27  1  0
 27 28  2  0
 28 29  1  0
 29 30  2  0
 30 31  1  0
 31 32  2  0
 25 33  1  0
 33 34  2  0
 33 35  1  0
 35 36  1  0
 36 37  1  0
 37 38  1  0
 38 39  1  0
 39 40  1  0
 40 41  2  3
 41 42  1  0
 41 43  1  0
 36 44  1  0
 44 45  2  0
 44 46  1  0
 46 47  1  0
 47 48  1  0
 48 49  1  0
 47 50  1  0
 50 51  1  0
 50 52  2  0
 21 15  1  0
 32 27  1  0
  1 53  1  0
  1 54  1  0
  3 55  1  0
  4 56  1  0
  5 57  1  0
  5 58  1  0
  6 59  1  0
  6 60  1  0
  7 61  1  0
  7 62  1  0
  8 63  1  1
  9 64  1  0
 12 65  1  6
 13 66  1  0
 13 67  1  0
 14 68  1  0
 14 69  1  0
 16 70  1  0
 17 71  1  0
 19 72  1  0
 20 73  1  0
 21 74  1  0
 24 75  1  0
 25 76  1  6
 26 77  1  0
 26 78  1  0
 28 79  1  0
 29 80  1  0
 30 81  1  0
 31 82  1  0
 32 83  1  0
 35 84  1  0
 36 85  1  1
 37 86  1  0
 37 87  1  0
 38 88  1  0
 38 89  1  0
 39 90  1  0
 39 91  1  0
 42 92  1  0
 42 93  1  0
 43 94  1  0
 43 95  1  0
 46 96  1  0
 47 97  1  6
 48 98  1  0
 48 99  1  0
 49100  1  0
 51101  1  0
 51102  1  0
M  END
$$$$
[H]c1c([H])c([H])c2c(c1[H])N(C1([H])C([H])([H])C([H])([H])N(C(=O)c3c([H])c(OC([H])([H])[H])c(OC([H])([H])[H])c(OC([H])([H])[H])c3[H])C([H])([H])C1([H])[H])C([H])([H])C2([H])[H]
     RDKit          3D

 57 60  0  0  0  0  0  0  0  0999 V2000
   -6.2440    2.1797    2.3884 C   0  0  0  0  0  0  0  0  0  0  0  0
   -6.2304    1.1241    1.4654 O   0  0  0  0  0  0  0  0  0  0  0  0
   -5.0576    0.5485    0.9657 C   0  0  0  0  0  0  0  0  0  0  0  0
   -3.8323    1.0072    1.3704 C   0  0  0  0  0  0  0  0  0  0  0  0
   -2.6212    0.4534    0.8898 C   0  0  0  0  0  0  0  0  0  0  0  0
   -2.7936   -0.5631   -0.0004 C   0  0  0  0  0  0  0  0  0  0  0  0
   -4.0465   -1.0440   -0.4242 C   0  0  0  0  0  0  0  0  0  0  0  0
   -4.1570   -2.0837   -1.3336 O   0  0  0  0  0  0  0  0  0  0  0  0
   -2.9730   -2.6621   -1.8362 C   0  0  0  0  0  0  0  0  0  0  0  0
   -5.1947   -0.4809    0.0652 C   0  0  0  0  0  0  0  0  0  0  0  0
   -6.4455   -0.9155   -0.3182 O   0  0  0  0  0  0  0  0  0  0  0  0
   -7.1825   -1.9219    0.3156 C   0  0  0  0  0  0  0  0  0  0  0  0
   -1.3801    1.0118    1.3493 C   0  0  0  0  0  0  0  0  0  0  0  0
   -1.5004    2.0700    2.1032 O   0  0  0  0  0  0  0  0  0  0  0  0
   -0.0767    0.6056    1.1205 N   0  0  0  0  0  0  0  0  0  0  0  0
    0.9827    1.4236    1.7220 C   0  0  0  0  0  0  0  0  0  0  0  0
    2.0531    1.7662    0.7161 C   0  0  0  0  0  0  0  0  0  0  0  0
    2.4615    0.5346   -0.0740 C   0  0  0  0  0  0  0  0  0  0  0  0
    1.8510   -0.7082    0.5890 C   0  0  0  0  0  0  0  0  0  0  0  0
    0.3304   -0.5367    0.3810 C   0  0  0  0  0  0  0  0  0  0  0  0
    3.8958    0.3941   -0.1931 N   0  0  0  0  0  0  0  0  0  0  0  0
    4.8646    0.2552    0.8737 C   0  0  0  0  0  0  0  0  0  0  0  0
    5.8583   -0.7081    0.2644 C   0  0  0  0  0  0  0  0  0  0  0  0
    5.8664   -0.2886   -1.1558 C   0  0  0  0  0  0  0  0  0  0  0  0
    6.8054   -0.4543   -2.1499 C   0  0  0  0  0  0  0  0  0  0  0  0
    6.4846    0.0696   -3.3915 C   0  0  0  0  0  0  0  0  0  0  0  0
    5.3017    0.7259   -3.6532 C   0  0  0  0  0  0  0  0  0  0  0  0
    4.3841    0.8760   -2.6415 C   0  0  0  0  0  0  0  0  0  0  0  0
    4.6830    0.3613   -1.3946 C   0  0  0  0  0  0  0  0  0  0  0  0
   -5.4670    1.9786    3.1693 H   0  0  0  0  0  0  0  0  0  0  0  0
   -6.0005    3.1656    1.9431 H   0  0  0  0  0  0  0  0  0  0  0  0
   -7.2216    2.2018    2.9086 H   0  0  0  0  0  0  0  0  0  0  0  0
   -3.7415    1.8277    2.0908 H   0  0  0  0  0  0  0  0  0  0  0  0
   -1.9709   -1.0543   -0.4479 H   0  0  0  0  0  0  0  0  0  0  0  0
   -2.3035   -1.9120   -2.3234 H   0  0  0  0  0  0  0  0  0  0  0  0
   -3.2610   -3.3678   -2.6472 H   0  0  0  0  0  0  0  0  0  0  0  0
   -2.3671   -3.1558   -1.0498 H   0  0  0  0  0  0  0  0  0  0  0  0
   -6.5787   -2.7530    0.7097 H   0  0  0  0  0  0  0  0  0  0  0  0
   -7.7948   -1.4413    1.1150 H   0  0  0  0  0  0  0  0  0  0  0  0
   -7.9024   -2.3888   -0.4178 H   0  0  0  0  0  0  0  0  0  0  0  0
    1.4363    0.9260    2.5806 H   0  0  0  0  0  0  0  0  0  0  0  0
    0.5287    2.3721    2.0504 H   0  0  0  0  0  0  0  0  0  0  0  0
    1.6959    2.5941    0.0844 H   0  0  0  0  0  0  0  0  0  0  0  0
    2.9407    2.1163    1.2753 H   0  0  0  0  0  0  0  0  0  0  0  0
    1.9701    0.6145   -1.0611 H   0  0  0  0  0  0  0  0  0  0  0  0
    2.2250   -1.5864    0.0389 H   0  0  0  0  0  0  0  0  0  0  0  0
    2.0415   -0.7635    1.6554 H   0  0  0  0  0  0  0  0  0  0  0  0
   -0.1087   -1.4915    0.7498 H   0  0  0  0  0  0  0  0  0  0  0  0
    0.2163   -0.3920   -0.7260 H   0  0  0  0  0  0  0  0  0  0  0  0
    5.3569    1.2439    1.0798 H   0  0  0  0  0  0  0  0  0  0  0  0
    4.4308   -0.1885    1.7887 H   0  0  0  0  0  0  0  0  0  0  0  0
    6.8580   -0.6291    0.7348 H   0  0  0  0  0  0  0  0  0  0  0  0
    5.4722   -1.7497    0.3859 H   0  0  0  0  0  0  0  0  0  0  0  0
    7.7428   -0.9652   -1.9733 H   0  0  0  0  0  0  0  0  0  0  0  0
    7.1824   -0.0272   -4.2192 H   0  0  0  0  0  0  0  0  0  0  0  0
    5.0888    1.1261   -4.6549 H   0  0  0  0  0  0  0  0  0  0  0  0
    3.4443    1.3984   -2.8528 H   0  0  0  0  0  0  0  0  0  0  0  0
  1  2  1  0
  2  3  1  0
  3  4  2  0
  4  5  1  0
  5  6  2  0
  6  7  1  0
  7  8  1  0
  8  9  1  0
  7 10  2  0
 10 11  1  0
 11 12  1  0
  5 13  1  0
 13 14  2  0
 13 15  1  0
 15 16  1  0
 16 17  1  0
 17 18  1  0
 18 19  1  0
 19 20  1  0
 18 21  1  0
 21 22  1  0
 22 23  1  0
 23 24  1  0
 24 25  2  0
 25 26  1  0
 26 27  2  0
 27 28  1  0
 28 29  2  0
 10  3  1  0
 20 15  1  0
 29 21  1  0
 29 24  1  0
  1 30  1  0
  1 31  1  0
  1 32  1  0
  4 33  1  0
  6 34  1  0
  9 35  1  0
  9 36  1  0
  9 37  1  0
 12 38  1  0
 12 39  1  0
 12 40  1  0
 16 41  1  0
 16 42  1  0
 17 43  1  0
 17 44  1  0
 18 45  1  0
 19 46  1  0
 19 47  1  0
 20 48  1  0
 20 49  1  0
 22 50  1  0
 22 51  1  0
 23 52  1  0
 23 53  1  0
 25 54  1  0
 26 55  1  0
 27 56  1  0
 28 57  1  0
M  END
$$$$
[H]O[C@]1([H])C([H])([H])C([H])([H])C([H])([H])C([H])([H])[C@]1([H])N1C([H])([H])C([H])([H])C([H])(c2c([H])c([H])c([H])c(F)c2[H])C([H])([H])C1([H])[H]
     RDKit          3D

 44 46  0  0  0  0  0  0  0  0999 V2000
   -3.2487   -0.5523   -1.6357 O   0  0  0  0  0  0  0  0  0  0  0  0
   -2.8419   -1.0728   -0.4053 C   0  0  2  0  0  0  0  0  0  0  0  0
   -4.1641   -1.3404    0.3334 C   0  0  0  0  0  0  0  0  0  0  0  0
   -4.9452   -0.0527    0.2109 C   0  0  0  0  0  0  0  0  0  0  0  0
   -4.2280    1.1465    0.7210 C   0  0  0  0  0  0  0  0  0  0  0  0
   -2.7972    1.2559    0.2541 C   0  0  0  0  0  0  0  0  0  0  0  0
   -2.1131   -0.0767    0.4439 C   0  0  2  0  0  0  0  0  0  0  0  0
   -0.7123   -0.0409    0.2865 N   0  0  0  0  0  0  0  0  0  0  0  0
   -0.1930    0.3175   -0.9747 C   0  0  0  0  0  0  0  0  0  0  0  0
    1.2418    0.7891   -0.8666 C   0  0  0  0  0  0  0  0  0  0  0  0
    1.9271    0.2140    0.3664 C   0  0  0  0  0  0  0  0  0  0  0  0
    1.3848   -1.1945    0.5193 C   0  0  0  0  0  0  0  0  0  0  0  0
   -0.0400   -1.0423    1.0200 C   0  0  0  0  0  0  0  0  0  0  0  0
    3.3797    0.2513    0.1958 C   0  0  0  0  0  0  0  0  0  0  0  0
    4.1414    0.9510    1.1070 C   0  0  0  0  0  0  0  0  0  0  0  0
    5.5152    1.0376    1.0213 C   0  0  0  0  0  0  0  0  0  0  0  0
    6.1358    0.4032   -0.0079 C   0  0  0  0  0  0  0  0  0  0  0  0
    5.3999   -0.3121   -0.9460 C   0  0  0  0  0  0  0  0  0  0  0  0
    6.0131   -0.9444   -1.9707 F   0  0  0  0  0  0  0  0  0  0  0  0
    4.0339   -0.3811   -0.8356 C   0  0  0  0  0  0  0  0  0  0  0  0
   -2.5452   -0.1600   -2.1639 H   0  0  0  0  0  0  0  0  0  0  0  0
   -2.2885   -2.0039   -0.5954 H   0  0  0  0  0  0  0  0  0  0  0  0
   -3.9112   -1.6074    1.3593 H   0  0  0  0  0  0  0  0  0  0  0  0
   -4.7109   -2.1271   -0.2217 H   0  0  0  0  0  0  0  0  0  0  0  0
   -5.2827    0.0516   -0.8395 H   0  0  0  0  0  0  0  0  0  0  0  0
   -5.8575   -0.1867    0.8618 H   0  0  0  0  0  0  0  0  0  0  0  0
   -4.7573    2.0486    0.3483 H   0  0  0  0  0  0  0  0  0  0  0  0
   -4.2637    1.1997    1.8253 H   0  0  0  0  0  0  0  0  0  0  0  0
   -2.7782    1.6303   -0.7703 H   0  0  0  0  0  0  0  0  0  0  0  0
   -2.2912    2.0037    0.8947 H   0  0  0  0  0  0  0  0  0  0  0  0
   -2.3096   -0.3562    1.5243 H   0  0  0  0  0  0  0  0  0  0  0  0
   -0.2121   -0.4906   -1.7227 H   0  0  0  0  0  0  0  0  0  0  0  0
   -0.7699    1.2215   -1.3313 H   0  0  0  0  0  0  0  0  0  0  0  0
    1.3279    1.8945   -0.8458 H   0  0  0  0  0  0  0  0  0  0  0  0
    1.8266    0.4391   -1.7362 H   0  0  0  0  0  0  0  0  0  0  0  0
    1.6088    0.7819    1.2526 H   0  0  0  0  0  0  0  0  0  0  0  0
    1.9438   -1.7887    1.2548 H   0  0  0  0  0  0  0  0  0  0  0  0
    1.4246   -1.7516   -0.4403 H   0  0  0  0  0  0  0  0  0  0  0  0
   -0.5627   -2.0106    1.0967 H   0  0  0  0  0  0  0  0  0  0  0  0
    0.0593   -0.6817    2.0862 H   0  0  0  0  0  0  0  0  0  0  0  0
    3.6671    1.4617    1.9314 H   0  0  0  0  0  0  0  0  0  0  0  0
    6.1036    1.5890    1.7415 H   0  0  0  0  0  0  0  0  0  0  0  0
    7.2132    0.4269   -0.1400 H   0  0  0  0  0  0  0  0  0  0  0  0
    3.4765   -0.9396   -1.5701 H   0  0  0  0  0  0  0  0  0  0  0  0
  1  2  1  0
  2  3  1  0
  3  4  1  0
  4  5  1  0
  5  6  1  0
  6  7  1  0
  7  8  1  0
  8  9  1  0
  9 10  1  0
 10 11  1  0
 11 12  1  0
 12 13  1  0
 11 14  1  0
 14 15  2  0
 15 16  1  0
 16 17  2  0
 17 18  1  0
 18 19  1  0
 18 20  2  0
  7  2  1  0
 13  8  1  0
 20 14  1  0
  1 21  1  0
  2 22  1  6
  3 23  1  0
  3 24  1  0
  4 25  1  0
  4 26  1  0
  5 27  1  0
  5 28  1  0
  6 29  1  0
  6 30  1  0
  7 31  1  1
  9 32  1  0
  9 33  1  0
 10 34  1  0
 10 35  1  0
 11 36  1  0
 12 37  1  0
 12 38  1  0
 13 39  1  0
 13 40  1  0
 15 41  1  0
 16 42  1  0
 17 43  1  0
 20 44  1  0
M  END
$$$$
[H]N=C(N([H])[H])N([H])C([H])([H])C([H])([H])C([H])([H])[C@@]([H])(C(=O)N1C([H])([H])C([H])([H])C([H])([H])[C@@]1([H])C(=O)N([H])[C@]([H])(C([H])=O)C([H])([H])c1c([H])c([H])c([H])c([H])c1[H])N([H])C(=O)OC(C([H])([H])[H])(C([H])([H])[H])C([H])([H])[H]
     RDKit          3D

 74 75  0  0  0  0  0  0  0  0999 V2000
   -6.2978    3.5679    0.0979 C   0  0  0  0  0  0  0  0  0  0  0  0
   -5.0918    3.9886   -0.6997 C   0  0  0  0  0  0  0  0  0  0  0  0
   -4.4502    5.1349    0.0577 C   0  0  0  0  0  0  0  0  0  0  0  0
   -5.6056    4.5866   -2.0114 C   0  0  0  0  0  0  0  0  0  0  0  0
   -4.2260    2.9614   -1.0266 O   0  0  0  0  0  0  0  0  0  0  0  0
   -3.5970    2.1978   -0.0706 C   0  0  0  0  0  0  0  0  0  0  0  0
   -3.8335    2.4680    1.1285 O   0  0  0  0  0  0  0  0  0  0  0  0
   -2.7061    1.1338   -0.3594 N   0  0  0  0  0  0  0  0  0  0  0  0
   -2.0664    0.3573    0.6853 C   0  0  1  0  0  0  0  0  0  0  0  0
   -2.6913   -1.0289    0.6173 C   0  0  0  0  0  0  0  0  0  0  0  0
   -2.4553   -1.6708   -0.7328 C   0  0  0  0  0  0  0  0  0  0  0  0
   -3.0834   -3.0352   -0.7616 C   0  0  0  0  0  0  0  0  0  0  0  0
   -4.5111   -2.9988   -0.5422 N   0  0  0  0  0  0  0  0  0  0  0  0
   -5.1942   -4.2497   -0.5640 C   0  0  0  0  0  0  0  0  0  0  0  0
   -5.9690   -4.7436    0.5178 N   0  0  0  0  0  0  0  0  0  0  0  0
   -5.1258   -5.0153   -1.6271 N   0  0  0  0  0  0  0  0  0  0  0  0
   -0.5819    0.2706    0.5001 C   0  0  0  0  0  0  0  0  0  0  0  0
   -0.1815    0.6952   -0.6160 O   0  0  0  0  0  0  0  0  0  0  0  0
    0.2916   -0.2254    1.4458 N   0  0  0  0  0  0  0  0  0  0  0  0
   -0.1749   -0.6377    2.8028 C   0  0  0  0  0  0  0  0  0  0  0  0
    0.3894   -2.0306    2.8439 C   0  0  0  0  0  0  0  0  0  0  0  0
    1.5308   -2.0636    1.8167 C   0  0  0  0  0  0  0  0  0  0  0  0
    1.6489   -0.5348    1.5340 C   0  0  1  0  0  0  0  0  0  0  0  0
    2.6157   -0.2566    0.5169 C   0  0  0  0  0  0  0  0  0  0  0  0
    2.4569    0.4200   -0.4986 O   0  0  0  0  0  0  0  0  0  0  0  0
    3.9420   -0.8394    0.6970 N   0  0  0  0  0  0  0  0  0  0  0  0
    4.9894   -0.6148   -0.2851 C   0  0  1  0  0  0  0  0  0  0  0  0
    6.1524    0.0194    0.4337 C   0  0  0  0  0  0  0  0  0  0  0  0
    7.2968    0.3023   -0.4521 C   0  0  0  0  0  0  0  0  0  0  0  0
    7.3802    1.5221   -1.0937 C   0  0  0  0  0  0  0  0  0  0  0  0
    8.4341    1.8407   -1.9382 C   0  0  0  0  0  0  0  0  0  0  0  0
    9.4480    0.9349   -2.1673 C   0  0  0  0  0  0  0  0  0  0  0  0
    9.3769   -0.2871   -1.5327 C   0  0  0  0  0  0  0  0  0  0  0  0
    8.3160   -0.6017   -0.6854 C   0  0  0  0  0  0  0  0  0  0  0  0
    5.3432   -1.9399   -0.8510 C   0  0  0  0  0  0  0  0  0  0  0  0
    4.7815   -2.9414   -0.4720 O   0  0  0  0  0  0  0  0  0  0  0  0
   -6.6847    2.5694   -0.1984 H   0  0  0  0  0  0  0  0  0  0  0  0
   -6.1408    3.6460    1.1939 H   0  0  0  0  0  0  0  0  0  0  0  0
   -7.1128    4.2843   -0.1453 H   0  0  0  0  0  0  0  0  0  0  0  0
   -4.5190    4.9602    1.1522 H   0  0  0  0  0  0  0  0  0  0  0  0
   -5.0887    6.0394   -0.1482 H   0  0  0  0  0  0  0  0  0  0  0  0
   -3.4432    5.3645   -0.2933 H   0  0  0  0  0  0  0  0  0  0  0  0
   -4.7558    5.1476   -2.4516 H   0  0  0  0  0  0  0  0  0  0  0  0
   -6.4997    5.1929   -1.8548 H   0  0  0  0  0  0  0  0  0  0  0  0
   -5.7934    3.7287   -2.7133 H   0  0  0  0  0  0  0  0  0  0  0  0
   -2.4947    0.8953   -1.3478 H   0  0  0  0  0  0  0  0  0  0  0  0
   -2.2961    0.7866    1.6510 H   0  0  0  0  0  0  0  0  0  0  0  0
   -2.3959   -1.7067    1.4043 H   0  0  0  0  0  0  0  0  0  0  0  0
   -3.7974   -0.8577    0.6761 H   0  0  0  0  0  0  0  0  0  0  0  0
   -1.3687   -1.8134   -0.9545 H   0  0  0  0  0  0  0  0  0  0  0  0
   -2.8653   -1.0760   -1.5604 H   0  0  0  0  0  0  0  0  0  0  0  0
   -2.8325   -3.5673   -1.6984 H   0  0  0  0  0  0  0  0  0  0  0  0
   -2.6318   -3.6359    0.0788 H   0  0  0  0  0  0  0  0  0  0  0  0
   -5.0607   -2.1411   -0.3734 H   0  0  0  0  0  0  0  0  0  0  0  0
   -6.7906   -4.1882    0.8226 H   0  0  0  0  0  0  0  0  0  0  0  0
   -5.7512   -5.6258    1.0107 H   0  0  0  0  0  0  0  0  0  0  0  0
   -4.5609   -4.6764   -2.4408 H   0  0  0  0  0  0  0  0  0  0  0  0
   -1.2225   -0.5120    2.9610 H   0  0  0  0  0  0  0  0  0  0  0  0
    0.4511    0.0405    3.4699 H   0  0  0  0  0  0  0  0  0  0  0  0
   -0.3418   -2.8173    2.6729 H   0  0  0  0  0  0  0  0  0  0  0  0
    0.9019   -2.1633    3.8414 H   0  0  0  0  0  0  0  0  0  0  0  0
    1.2117   -2.5168    0.8709 H   0  0  0  0  0  0  0  0  0  0  0  0
    2.4637   -2.4394    2.2365 H   0  0  0  0  0  0  0  0  0  0  0  0
    1.9925   -0.1580    2.5595 H   0  0  0  0  0  0  0  0  0  0  0  0
    4.0938   -1.4133    1.5508 H   0  0  0  0  0  0  0  0  0  0  0  0
    4.5667    0.0662   -1.0587 H   0  0  0  0  0  0  0  0  0  0  0  0
    6.4986   -0.7069    1.1940 H   0  0  0  0  0  0  0  0  0  0  0  0
    5.8186    0.9819    0.8637 H   0  0  0  0  0  0  0  0  0  0  0  0
    6.5982    2.2515   -0.9319 H   0  0  0  0  0  0  0  0  0  0  0  0
    8.5122    2.7973   -2.4490 H   0  0  0  0  0  0  0  0  0  0  0  0
   10.2833    1.1508   -2.8196 H   0  0  0  0  0  0  0  0  0  0  0  0
   10.1601   -1.0173   -1.6944 H   0  0  0  0  0  0  0  0  0  0  0  0
    8.2343   -1.5512   -0.1749 H   0  0  0  0  0  0  0  0  0  0  0  0
    6.1107   -2.0050   -1.6093 H   0  0  0  0  0  0  0  0  0  0  0  0
  1  2  1  0
  2  3  1  0
  2  4  1  0
  2  5  1  0
  5  6  1  0
  6  7  2  0
  6  8  1  0
  8  9  1  0
  9 10  1  0
 10 11  1  0
 11 12  1  0
 12 13  1  0
 13 14  1  0
 14 15  1  0
 14 16  2  3
  9 17  1  0
 17 18  2  0
 17 19  1  0
 19 20  1  0
 20 21  1  0
 21 22  1  0
 22 23  1  0
 23 24  1  0
 24 25  2  0
 24 26  1  0
 26 27  1  0
 27 28  1  0
 28 29  1  0
 29 30  2  0
 30 31  1  0
 31 32  2  0
 32 33  1  0
 33 34  2  0
 27 35  1  0
 35 36  2  0
 23 19  1  0
 34 29  1  0
  1 37  1  0
  1 38  1  0
  1 39  1  0
  3 40  1  0
  3 41  1  0
  3 42  1  0
  4 43  1  0
  4 44  1  0
  4 45  1  0
  8 46  1  0
  9 47  1  1
 10 48  1  0
 10 49  1  0
 11 50  1  0
 11 51  1  0
 12 52  1  0
 12 53  1  0
 13 54  1  0
 15 55  1  0
 15 56  1  0
 16 57  1  0
 20 58  1  0
 20 59  1  0
 21 60  1  0
 21 61  1  0
 22 62  1  0
 22 63  1  0
 23 64  1  1
 26 65  1  0
 27 66  1  6
 28 67  1  0
 28 68  1  0
 30 69  1  0
 31 70  1  0
 32 71  1  0
 33 72  1  0
 34 73  1  0
 35 74  1  0
M  END
$$$$
[H]c1nc([H])c(-c2c(-c3c([H])c([H])c([H])c([H])c3[H])nc3sc(N([H])C(=O)N([H])C([H])([H])C([H])([H])[H])nc3c2[H])c([H])c1[H]
     RDKit          3D

 44 47  0  0  0  0  0  0  0  0999 V2000
    8.5876   -0.5734    0.7474 C   0  0  0  0  0  0  0  0  0  0  0  0
    7.7003    0.6493    1.0513 C   0  0  0  0  0  0  0  0  0  0  0  0
    6.3763    0.2918    1.0691 N   0  0  0  0  0  0  0  0  0  0  0  0
    5.0726   -0.0678    1.0939 C   0  0  0  0  0  0  0  0  0  0  0  0
    4.4851   -0.9728    1.7586 O   0  0  0  0  0  0  0  0  0  0  0  0
    4.1878    0.7251    0.2263 N   0  0  0  0  0  0  0  0  0  0  0  0
    2.8125    0.4037    0.2299 C   0  0  0  0  0  0  0  0  0  0  0  0
    1.7682    1.1209   -0.1446 N   0  0  0  0  0  0  0  0  0  0  0  0
    0.5750    0.6046   -0.1507 C   0  0  0  0  0  0  0  0  0  0  0  0
   -0.6287    1.2655   -0.5001 C   0  0  0  0  0  0  0  0  0  0  0  0
   -1.8152    0.5577   -0.4299 C   0  0  0  0  0  0  0  0  0  0  0  0
   -3.0264    1.3022   -0.6799 C   0  0  0  0  0  0  0  0  0  0  0  0
   -3.3934    2.1637    0.3645 C   0  0  0  0  0  0  0  0  0  0  0  0
   -4.5270    2.9517    0.2495 C   0  0  0  0  0  0  0  0  0  0  0  0
   -5.2837    2.8690   -0.9034 C   0  0  0  0  0  0  0  0  0  0  0  0
   -4.9454    2.0452   -1.9125 N   0  0  0  0  0  0  0  0  0  0  0  0
   -3.8237    1.2820   -1.7749 C   0  0  0  0  0  0  0  0  0  0  0  0
   -1.8973   -0.7464   -0.0509 C   0  0  0  0  0  0  0  0  0  0  0  0
   -0.7449   -1.3595    0.2824 N   0  0  0  0  0  0  0  0  0  0  0  0
    0.4553   -0.7081    0.2353 C   0  0  0  0  0  0  0  0  0  0  0  0
    2.0978   -1.1032    0.5937 S   0  0  0  0  0  0  0  0  0  0  0  0
   -3.1510   -1.4809   -0.1035 C   0  0  0  0  0  0  0  0  0  0  0  0
   -3.3442   -2.3883   -1.1843 C   0  0  0  0  0  0  0  0  0  0  0  0
   -4.5002   -3.1393   -1.3075 C   0  0  0  0  0  0  0  0  0  0  0  0
   -5.4564   -2.9689   -0.3463 C   0  0  0  0  0  0  0  0  0  0  0  0
   -5.2628   -2.0735    0.7131 C   0  0  0  0  0  0  0  0  0  0  0  0
   -4.1379   -1.3432    0.8415 C   0  0  0  0  0  0  0  0  0  0  0  0
    9.4696   -0.1950    0.1697 H   0  0  0  0  0  0  0  0  0  0  0  0
    7.9554   -1.3115    0.2490 H   0  0  0  0  0  0  0  0  0  0  0  0
    8.8834   -0.9572    1.7350 H   0  0  0  0  0  0  0  0  0  0  0  0
    8.1299    1.1330    1.9657 H   0  0  0  0  0  0  0  0  0  0  0  0
    7.8461    1.3708    0.1483 H   0  0  0  0  0  0  0  0  0  0  0  0
    6.5890   -0.5417    2.1374 H   0  0  0  0  0  0  0  0  0  0  0  0
    4.5139    1.4766   -0.3840 H   0  0  0  0  0  0  0  0  0  0  0  0
   -0.6124    2.3081   -0.8173 H   0  0  0  0  0  0  0  0  0  0  0  0
   -2.8316    2.2354    1.2875 H   0  0  0  0  0  0  0  0  0  0  0  0
   -4.7512    3.5681    1.0886 H   0  0  0  0  0  0  0  0  0  0  0  0
   -6.1714    3.5007   -0.9801 H   0  0  0  0  0  0  0  0  0  0  0  0
   -3.5943    0.6389   -2.6105 H   0  0  0  0  0  0  0  0  0  0  0  0
   -2.5691   -2.5108   -1.9183 H   0  0  0  0  0  0  0  0  0  0  0  0
   -4.6309   -3.8446   -2.1366 H   0  0  0  0  0  0  0  0  0  0  0  0
   -6.3589   -3.5654   -0.4113 H   0  0  0  0  0  0  0  0  0  0  0  0
   -6.0549   -1.9743    1.4564 H   0  0  0  0  0  0  0  0  0  0  0  0
   -3.9927   -0.6382    1.6896 H   0  0  0  0  0  0  0  0  0  0  0  0
  1  2  1  0
  2  3  1  0
  3  4  1  0
  4  5  2  0
  4  6  1  0
  6  7  1  0
  7  8  2  0
  8  9  1  0
  9 10  2  0
 10 11  1  0
 11 12  1  0
 12 13  2  0
 13 14  1  0
 14 15  2  0
 15 16  1  0
 16 17  2  0
 11 18  2  0
 18 19  1  0
 19 20  2  0
 20 21  1  0
 18 22  1  0
 22 23  2  0
 23 24  1  0
 24 25  2  0
 25 26  1  0
 26 27  2  0
 21  7  1  0
 27 22  1  0
 20  9  1  0
 17 12  1  0
  1 28  1  0
  1 29  1  0
  1 30  1  0
  2 31  1  0
  2 32  1  0
  3 33  1  0
  6 34  1  0
 10 35  1  0
 13 36  1  0
 14 37  1  0
 15 38  1  0
 17 39  1  0
 23 40  1  0
 24 41  1  0
 25 42  1  0
 26 43  1  0
 27 44  1  0
M  END
$$$$
[H]ON([H])C(=O)C([H])([H])[C@]([H])(C(=O)N([H])[C@]([H])(C(=O)N([H])c1nc([H])c([H])s1)C([H])([H])c1c([H])n([H])c2c([H])c([H])c([H])c([H])c12)C([H])([H])C([H])(C([H])([H])[H])C([H])([H])[H]
     RDKit          3D

 59 61  0  0  0  0  0  0  0  0999 V2000
    3.6530   -0.0744    2.4485 C   0  0  0  0  0  0  0  0  0  0  0  0
    3.6679    1.0411    1.4166 C   0  0  0  0  0  0  0  0  0  0  0  0
    3.9848    2.3587    2.1413 C   0  0  0  0  0  0  0  0  0  0  0  0
    2.3749    1.1588    0.6865 C   0  0  0  0  0  0  0  0  0  0  0  0
    1.9772   -0.1022   -0.0770 C   0  0  2  0  0  0  0  0  0  0  0  0
    3.0026   -0.4488   -1.0957 C   0  0  0  0  0  0  0  0  0  0  0  0
    2.7227   -1.6563   -1.8735 C   0  0  0  0  0  0  0  0  0  0  0  0
    1.7021   -2.3360   -1.5861 O   0  0  0  0  0  0  0  0  0  0  0  0
    3.5575   -2.0960   -2.9439 N   0  0  0  0  0  0  0  0  0  0  0  0
    3.2867   -3.1980   -3.6413 O   0  0  0  0  0  0  0  0  0  0  0  0
    0.6722    0.2160   -0.7000 C   0  0  0  0  0  0  0  0  0  0  0  0
    0.5921    0.2491   -1.9407 O   0  0  0  0  0  0  0  0  0  0  0  0
   -0.4849    0.4846    0.0661 N   0  0  0  0  0  0  0  0  0  0  0  0
   -1.7708    0.7987   -0.4852 C   0  0  1  0  0  0  0  0  0  0  0  0
   -2.8649   -0.1810   -0.1377 C   0  0  0  0  0  0  0  0  0  0  0  0
   -2.6232   -1.5554   -0.5737 C   0  0  0  0  0  0  0  0  0  0  0  0
   -3.0965   -2.1100   -1.7526 C   0  0  0  0  0  0  0  0  0  0  0  0
   -2.6461   -3.3912   -1.8457 N   0  0  0  0  0  0  0  0  0  0  0  0
   -1.9020   -3.6607   -0.7571 C   0  0  0  0  0  0  0  0  0  0  0  0
   -1.2415   -4.8149   -0.3853 C   0  0  0  0  0  0  0  0  0  0  0  0
   -0.5494   -4.8317    0.8084 C   0  0  0  0  0  0  0  0  0  0  0  0
   -0.4964   -3.7310    1.6434 C   0  0  0  0  0  0  0  0  0  0  0  0
   -1.1723   -2.5928    1.2331 C   0  0  0  0  0  0  0  0  0  0  0  0
   -1.8789   -2.5160    0.0523 C   0  0  0  0  0  0  0  0  0  0  0  0
   -2.2290    2.1465   -0.1123 C   0  0  0  0  0  0  0  0  0  0  0  0
   -1.5262    2.8529    0.6475 O   0  0  0  0  0  0  0  0  0  0  0  0
   -3.4424    2.6623   -0.5923 N   0  0  0  0  0  0  0  0  0  0  0  0
   -3.8967    3.9868   -0.2279 C   0  0  0  0  0  0  0  0  0  0  0  0
   -3.2698    4.8406    0.5614 N   0  0  0  0  0  0  0  0  0  0  0  0
   -3.7943    5.9993    0.8029 C   0  0  0  0  0  0  0  0  0  0  0  0
   -5.0000    6.2880    0.2147 C   0  0  0  0  0  0  0  0  0  0  0  0
   -5.2991    4.8436   -0.6612 S   0  0  0  0  0  0  0  0  0  0  0  0
    4.0712   -1.0192    2.0119 H   0  0  0  0  0  0  0  0  0  0  0  0
    4.2715    0.1716    3.3406 H   0  0  0  0  0  0  0  0  0  0  0  0
    2.6034   -0.2997    2.6966 H   0  0  0  0  0  0  0  0  0  0  0  0
    4.5334    0.8695    0.7535 H   0  0  0  0  0  0  0  0  0  0  0  0
    5.0610    2.4985    2.2777 H   0  0  0  0  0  0  0  0  0  0  0  0
    3.5093    2.3825    3.1343 H   0  0  0  0  0  0  0  0  0  0  0  0
    3.6109    3.1941    1.5054 H   0  0  0  0  0  0  0  0  0  0  0  0
    1.5907    1.4095    1.4490 H   0  0  0  0  0  0  0  0  0  0  0  0
    2.3946    2.0030   -0.0098 H   0  0  0  0  0  0  0  0  0  0  0  0
    1.7978   -0.9145    0.6605 H   0  0  0  0  0  0  0  0  0  0  0  0
    4.0190   -0.5121   -0.6164 H   0  0  0  0  0  0  0  0  0  0  0  0
    3.0991    0.3971   -1.8252 H   0  0  0  0  0  0  0  0  0  0  0  0
    4.4097   -1.5499   -3.2022 H   0  0  0  0  0  0  0  0  0  0  0  0
    3.7942   -3.9962   -3.3525 H   0  0  0  0  0  0  0  0  0  0  0  0
   -0.3995    0.4535    1.1019 H   0  0  0  0  0  0  0  0  0  0  0  0
   -1.6414    0.7222   -1.6082 H   0  0  0  0  0  0  0  0  0  0  0  0
   -3.8138    0.2288   -0.5911 H   0  0  0  0  0  0  0  0  0  0  0  0
   -3.0485   -0.1030    0.9620 H   0  0  0  0  0  0  0  0  0  0  0  0
   -3.7204   -1.6567   -2.5117 H   0  0  0  0  0  0  0  0  0  0  0  0
   -2.8456   -4.0613   -2.6369 H   0  0  0  0  0  0  0  0  0  0  0  0
   -1.2581   -5.6911   -1.0049 H   0  0  0  0  0  0  0  0  0  0  0  0
   -0.0309   -5.7334    1.1033 H   0  0  0  0  0  0  0  0  0  0  0  0
    0.0417   -3.7394    2.5758 H   0  0  0  0  0  0  0  0  0  0  0  0
   -1.1278   -1.7507    1.9058 H   0  0  0  0  0  0  0  0  0  0  0  0
   -4.0403    2.1039   -1.2196 H   0  0  0  0  0  0  0  0  0  0  0  0
   -3.2986    6.7458    1.4616 H   0  0  0  0  0  0  0  0  0  0  0  0
   -5.5920    7.2167    0.3047 H   0  0  0  0  0  0  0  0  0  0  0  0
  1  2  1  0
  2  3  1  0
  2  4  1  0
  4  5  1  0
  5  6  1  0
  6  7  1  0
  7  8  2  0
  7  9  1  0
  9 10  1  0
  5 11  1  0
 11 12  2  0
 11 13  1  0
 13 14  1  0
 14 15  1  0
 15 16  1  0
 16 17  2  0
 17 18  1  0
 18 19  1  0
 19 20  2  0
 20 21  1  0
 21 22  2  0
 22 23  1  0
 23 24  2  0
 14 25  1  0
 25 26  2  0
 25 27  1  0
 27 28  1  0
 28 29  2  0
 29 30  1  0
 30 31  2  0
 31 32  1  0
 24 16  1  0
 32 28  1  0
 24 19  1  0
  1 33  1  0
  1 34  1  0
  1 35  1  0
  2 36  1  0
  3 37  1  0
  3 38  1  0
  3 39  1  0
  4 40  1  0
  4 41  1  0
  5 42  1  1
  6 43  1  0
  6 44  1  0
  9 45  1  0
 10 46  1  0
 13 47  1  0
 14 48  1  6
 15 49  1  0
 15 50  1  0
 17 51  1  0
 18 52  1  0
 20 53  1  0
 21 54  1  0
 22 55  1  0
 23 56  1  0
 27 57  1  0
 30 58  1  0
 31 59  1  0
M  END
$$$$
[H]OC([H])([H])[C@@]1([H])[C@]([H])(O[H])[C@@]([H])(O[H])[C@]([H])(O[H])[C@@]([H])(O[H])[C@]1([H])O[H]
     RDKit          3D

 27 27  0  0  0  0  0  0  0  0999 V2000
   -2.5063    0.1740    1.1130 O   0  0  0  0  0  0  0  0  0  0  0  0
   -2.3524    0.5080   -0.2358 C   0  0  0  0  0  0  0  0  0  0  0  0
   -0.8802    0.4486   -0.6374 C   0  0  1  0  0  0  0  0  0  0  0  0
   -0.0698    1.3965    0.1695 C   0  0  2  0  0  0  0  0  0  0  0  0
    0.5968    2.3183   -0.6473 O   0  0  0  0  0  0  0  0  0  0  0  0
    0.9343    0.7297    1.0723 C   0  0  1  0  0  0  0  0  0  0  0  0
    0.3012    0.2212    2.1870 O   0  0  0  0  0  0  0  0  0  0  0  0
    1.7759   -0.2495    0.3402 C   0  0  2  0  0  0  0  0  0  0  0  0
    2.6915    0.4867   -0.4467 O   0  0  0  0  0  0  0  0  0  0  0  0
    1.0397   -1.1714   -0.5617 C   0  0  1  0  0  0  0  0  0  0  0  0
    1.2974   -2.4825   -0.1615 O   0  0  0  0  0  0  0  0  0  0  0  0
   -0.4529   -0.9751   -0.5660 C   0  0  2  0  0  0  0  0  0  0  0  0
   -0.9297   -1.6114   -1.7380 O   0  0  0  0  0  0  0  0  0  0  0  0
   -3.0722    0.8786    1.5381 H   0  0  0  0  0  0  0  0  0  0  0  0
   -2.8803   -0.2966   -0.8210 H   0  0  0  0  0  0  0  0  0  0  0  0
   -2.7780    1.4894   -0.4895 H   0  0  0  0  0  0  0  0  0  0  0  0
   -0.8505    0.7736   -1.7029 H   0  0  0  0  0  0  0  0  0  0  0  0
   -0.7447    2.0006    0.8412 H   0  0  0  0  0  0  0  0  0  0  0  0
    0.8980    3.1009   -0.1248 H   0  0  0  0  0  0  0  0  0  0  0  0
    1.6190    1.5469    1.4418 H   0  0  0  0  0  0  0  0  0  0  0  0
    0.2269   -0.7438    2.2132 H   0  0  0  0  0  0  0  0  0  0  0  0
    2.4185   -0.7947    1.0793 H   0  0  0  0  0  0  0  0  0  0  0  0
    2.8950    0.0308   -1.2889 H   0  0  0  0  0  0  0  0  0  0  0  0
    1.3895   -1.1061   -1.6271 H   0  0  0  0  0  0  0  0  0  0  0  0
    0.7608   -2.6945    0.6435 H   0  0  0  0  0  0  0  0  0  0  0  0
   -0.9334   -1.5468    0.2715 H   0  0  0  0  0  0  0  0  0  0  0  0
   -0.3943   -2.4314   -1.8621 H   0  0  0  0  0  0  0  0  0  0  0  0
  1  2  1  0
  2  3  1  0
  3  4  1  0
  4  5  1  0
  4  6  1  0
  6  7  1  0
  6  8  1  0
  8  9  1  0
  8 10  1  0
 10 11  1  0
 10 12  1  0
 12 13  1  0
 12  3  1  0
  1 14  1  0
  2 15  1  0
  2 16  1  0
  3 17  1  6
  4 18  1  1
  5 19  1  0
  6 20  1  1
  7 21  1  0
  8 22  1  1
  9 23  1  0
 10 24  1  6
 11 25  1  0
 12 26  1  1
 13 27  1  0
M  END
$$$$
[H]C1=C([H])C([H])(F)C([H])([H])C([H])=C1N([H])C(=O)C1(C(=O)N([H])c2c([H])c([H])c(Oc3c([H])c([H])nc4c([H])c(OC([H])([H])C([H])([H])C([H])([H])N5C([H])([H])C([H])([H])C([H])(C([H])([H])[H])C([H])([H])C5([H])[H])c(OC([H])([H])[H])c([H])c34)c(F)c2[H])C([H])([H])C1([H])[H]
     RDKit          3D

 87 92  0  0  0  0  0  0  0  0999 V2000
   -3.0785    0.9840    2.9446 C   0  0  0  0  0  0  0  0  0  0  0  0
   -3.9031    0.6001    1.8855 O   0  0  0  0  0  0  0  0  0  0  0  0
   -3.3679    0.0849    0.7226 C   0  0  0  0  0  0  0  0  0  0  0  0
   -1.9804   -0.0384    0.6399 C   0  0  0  0  0  0  0  0  0  0  0  0
   -1.4316   -0.5513   -0.5147 C   0  0  0  0  0  0  0  0  0  0  0  0
   -0.0349   -0.6840   -0.6153 C   0  0  0  0  0  0  0  0  0  0  0  0
    0.7128   -0.2873    0.4702 O   0  0  0  0  0  0  0  0  0  0  0  0
    2.0838   -0.4723    0.4829 C   0  0  0  0  0  0  0  0  0  0  0  0
    2.9490    0.6001    0.5003 C   0  0  0  0  0  0  0  0  0  0  0  0
    4.2979    0.4308    0.5145 C   0  0  0  0  0  0  0  0  0  0  0  0
    4.9250   -0.8414    0.5133 C   0  0  0  0  0  0  0  0  0  0  0  0
    6.3265   -0.8966    0.5252 N   0  0  0  0  0  0  0  0  0  0  0  0
    7.1090   -2.0317    0.4365 C   0  0  0  0  0  0  0  0  0  0  0  0
    6.5483   -3.1857    0.3227 O   0  0  0  0  0  0  0  0  0  0  0  0
    8.5926   -2.1273    0.4511 C   0  0  0  0  0  0  0  0  0  0  0  0
    9.2071   -3.3747    1.0628 C   0  0  0  0  0  0  0  0  0  0  0  0
    9.1485   -3.2060   -0.4295 C   0  0  0  0  0  0  0  0  0  0  0  0
    9.3963   -0.9194    0.6715 C   0  0  0  0  0  0  0  0  0  0  0  0
    8.9530    0.0799    1.2391 O   0  0  0  0  0  0  0  0  0  0  0  0
   10.7663   -0.8365    0.2298 N   0  0  0  0  0  0  0  0  0  0  0  0
   11.5347    0.3385    0.4356 C   0  0  0  0  0  0  0  0  0  0  0  0
   12.0434    0.9405   -0.6112 C   0  0  0  0  0  0  0  0  0  0  0  0
   12.8548    2.1592   -0.5102 C   0  0  0  0  0  0  0  0  0  0  0  0
   13.0082    2.7280    0.8563 C   0  0  0  0  0  0  0  0  0  0  0  0
   12.4179    4.0081    0.8164 F   0  0  0  0  0  0  0  0  0  0  0  0
   12.3963    1.9580    1.9334 C   0  0  0  0  0  0  0  0  0  0  0  0
   11.7215    0.8691    1.7600 C   0  0  0  0  0  0  0  0  0  0  0  0
    4.0542   -1.8931    0.4975 C   0  0  0  0  0  0  0  0  0  0  0  0
    2.6604   -1.7176    0.4827 C   0  0  0  0  0  0  0  0  0  0  0  0
    1.8732   -2.8458    0.4930 F   0  0  0  0  0  0  0  0  0  0  0  0
    0.4995   -1.1940   -1.7641 C   0  0  0  0  0  0  0  0  0  0  0  0
   -0.3389   -1.5697   -2.8019 C   0  0  0  0  0  0  0  0  0  0  0  0
   -1.6631   -1.4457   -2.7096 N   0  0  0  0  0  0  0  0  0  0  0  0
   -2.1993   -0.9486   -1.5938 C   0  0  0  0  0  0  0  0  0  0  0  0
   -3.5742   -0.7976   -1.4424 C   0  0  0  0  0  0  0  0  0  0  0  0
   -4.1790   -0.2950   -0.3220 C   0  0  0  0  0  0  0  0  0  0  0  0
   -5.5564   -0.1864   -0.2742 O   0  0  0  0  0  0  0  0  0  0  0  0
   -6.4099   -0.5626   -1.3057 C   0  0  0  0  0  0  0  0  0  0  0  0
   -7.8397   -0.2965   -0.9110 C   0  0  0  0  0  0  0  0  0  0  0  0
   -8.1005    1.1757   -0.6184 C   0  0  0  0  0  0  0  0  0  0  0  0
   -9.4544    1.3229   -0.2890 N   0  0  0  0  0  0  0  0  0  0  0  0
   -9.9778    0.7887    0.8920 C   0  0  0  0  0  0  0  0  0  0  0  0
  -11.4758    1.0809    0.9273 C   0  0  0  0  0  0  0  0  0  0  0  0
  -12.0963    0.6694   -0.3858 C   0  0  0  0  0  0  0  0  0  0  0  0
  -13.6008    0.8365   -0.3682 C   0  0  0  0  0  0  0  0  0  0  0  0
  -11.4634    1.4141   -1.5401 C   0  0  0  0  0  0  0  0  0  0  0  0
  -10.2633    2.2184   -1.0176 C   0  0  0  0  0  0  0  0  0  0  0  0
   -3.7453    1.4806    3.7086 H   0  0  0  0  0  0  0  0  0  0  0  0
   -2.2347    1.6277    2.6636 H   0  0  0  0  0  0  0  0  0  0  0  0
   -2.6654    0.0808    3.4802 H   0  0  0  0  0  0  0  0  0  0  0  0
   -1.3337    0.2521    1.4428 H   0  0  0  0  0  0  0  0  0  0  0  0
    2.5030    1.5961    0.5009 H   0  0  0  0  0  0  0  0  0  0  0  0
    4.9524    1.3060    0.5279 H   0  0  0  0  0  0  0  0  0  0  0  0
    6.8361    0.0334    0.5987 H   0  0  0  0  0  0  0  0  0  0  0  0
    8.5338   -4.1181    1.5207 H   0  0  0  0  0  0  0  0  0  0  0  0
   10.1894   -3.3100    1.5638 H   0  0  0  0  0  0  0  0  0  0  0  0
   10.0992   -3.0657   -0.9463 H   0  0  0  0  0  0  0  0  0  0  0  0
    8.4291   -3.8352   -1.0014 H   0  0  0  0  0  0  0  0  0  0  0  0
   11.2377   -1.6256   -0.2466 H   0  0  0  0  0  0  0  0  0  0  0  0
   11.8517    0.5096   -1.6075 H   0  0  0  0  0  0  0  0  0  0  0  0
   13.8598    1.8851   -0.9567 H   0  0  0  0  0  0  0  0  0  0  0  0
   12.4110    2.9077   -1.2293 H   0  0  0  0  0  0  0  0  0  0  0  0
   14.1005    2.8469    1.0909 H   0  0  0  0  0  0  0  0  0  0  0  0
   12.5083    2.3180    2.9616 H   0  0  0  0  0  0  0  0  0  0  0  0
   11.2949    0.3584    2.6390 H   0  0  0  0  0  0  0  0  0  0  0  0
    4.4171   -2.9195    0.5011 H   0  0  0  0  0  0  0  0  0  0  0  0
    1.5644   -1.2892   -1.8730 H   0  0  0  0  0  0  0  0  0  0  0  0
    0.1295   -1.9794   -3.7181 H   0  0  0  0  0  0  0  0  0  0  0  0
   -4.1966   -1.1029   -2.2772 H   0  0  0  0  0  0  0  0  0  0  0  0
   -6.2368   -1.6646   -1.4691 H   0  0  0  0  0  0  0  0  0  0  0  0
   -6.1593   -0.0998   -2.2911 H   0  0  0  0  0  0  0  0  0  0  0  0
   -8.0234   -0.9092    0.0221 H   0  0  0  0  0  0  0  0  0  0  0  0
   -8.5647   -0.6901   -1.6493 H   0  0  0  0  0  0  0  0  0  0  0  0
   -7.9076    1.7201   -1.5885 H   0  0  0  0  0  0  0  0  0  0  0  0
   -7.4247    1.5726    0.1400 H   0  0  0  0  0  0  0  0  0  0  0  0
   -9.4936    1.1718    1.8359 H   0  0  0  0  0  0  0  0  0  0  0  0
   -9.8858   -0.3337    0.8790 H   0  0  0  0  0  0  0  0  0  0  0  0
  -11.6897    2.1325    1.1977 H   0  0  0  0  0  0  0  0  0  0  0  0
  -11.9304    0.4561    1.7414 H   0  0  0  0  0  0  0  0  0  0  0  0
  -11.9022   -0.4405   -0.4738 H   0  0  0  0  0  0  0  0  0  0  0  0
  -13.9555    0.5945    0.6408 H   0  0  0  0  0  0  0  0  0  0  0  0
  -14.0206    0.0698   -1.0603 H   0  0  0  0  0  0  0  0  0  0  0  0
  -13.9170    1.8572   -0.7058 H   0  0  0  0  0  0  0  0  0  0  0  0
  -12.2165    2.0590   -1.9893 H   0  0  0  0  0  0  0  0  0  0  0  0
  -11.0159    0.7060   -2.2825 H   0  0  0  0  0  0  0  0  0  0  0  0
   -9.7587    2.7468   -1.8315 H   0  0  0  0  0  0  0  0  0  0  0  0
  -10.7312    3.0122   -0.3702 H   0  0  0  0  0  0  0  0  0  0  0  0
  1  2  1  0
  2  3  1  0
  3  4  2  0
  4  5  1  0
  5  6  2  0
  6  7  1  0
  7  8  1  0
  8  9  2  0
  9 10  1  0
 10 11  2  0
 11 12  1  0
 12 13  1  0
 13 14  2  0
 13 15  1  0
 15 16  1  0
 16 17  1  0
 15 18  1  0
 18 19  2  0
 18 20  1  0
 20 21  1  0
 21 22  2  0
 22 23  1  0
 23 24  1  0
 24 25  1  0
 24 26  1  0
 26 27  2  0
 11 28  1  0
 28 29  2  0
 29 30  1  0
  6 31  1  0
 31 32  2  0
 32 33  1  0
 33 34  2  0
 34 35  1  0
 35 36  2  0
 36 37  1  0
 37 38  1  0
 38 39  1  0
 39 40  1  0
 40 41  1  0
 41 42  1  0
 42 43  1  0
 43 44  1  0
 44 45  1  0
 44 46  1  0
 46 47  1  0
 36  3  1  0
 47 41  1  0
 34  5  1  0
 29  8  1  0
 17 15  1  0
 27 21  1  0
  1 48  1  0
  1 49  1  0
  1 50  1  0
  4 51  1  0
  9 52  1  0
 10 53  1  0
 12 54  1  0
 16 55  1  0
 16 56  1  0
 17 57  1  0
 17 58  1  0
 20 59  1  0
 22 60  1  0
 23 61  1  0
 23 62  1  0
 24 63  1  0
 26 64  1  0
 27 65  1  0
 28 66  1  0
 31 67  1  0
 32 68  1  0
 35 69  1  0
 38 70  1  0
 38 71  1  0
 39 72  1  0
 39 73  1  0
 40 74  1  0
 40 75  1  0
 42 76  1  0
 42 77  1  0
 43 78  1  0
 43 79  1  0
 44 80  1  0
 45 81  1  0
 45 82  1  0
 45 83  1  0
 46 84  1  0
 46 85  1  0
 47 86  1  0
 47 87  1  0
M  END
$$$$
[H]c1c([H])c([H])c([C@]([H])(N([H])C(=O)C(=O)[C@@]([H])(N([H])C(=O)OC([H])(C([H])(C([H])([H])[H])C([H])([H])[H])C([H])(C([H])([H])[H])C([H])([H])[H])C([H])([H])C([H])([H])C([H])([H])C([H])([H])[H])C([H])([H])[H])c([H])c1[H]
     RDKit          3D

 65 65  0  0  0  0  0  0  0  0999 V2000
   -0.1576    4.5398    0.3272 C   0  0  0  0  0  0  0  0  0  0  0  0
    1.1269    3.8285    0.7152 C   0  0  0  0  0  0  0  0  0  0  0  0
    0.8128    2.3355    0.7446 C   0  0  0  0  0  0  0  0  0  0  0  0
    0.3584    1.9654   -0.6365 C   0  0  0  0  0  0  0  0  0  0  0  0
    0.0065    0.4939   -0.7644 C   0  0  2  0  0  0  0  0  0  0  0  0
   -1.0789    0.1636    0.1599 N   0  0  0  0  0  0  0  0  0  0  0  0
   -2.3639   -0.2476   -0.2765 C   0  0  0  0  0  0  0  0  0  0  0  0
   -2.6644   -0.3579   -1.4949 O   0  0  0  0  0  0  0  0  0  0  0  0
   -3.3306   -0.5411    0.6325 O   0  0  0  0  0  0  0  0  0  0  0  0
   -4.6378   -0.9564    0.3523 C   0  0  0  0  0  0  0  0  0  0  0  0
   -5.6956    0.0053    0.7684 C   0  0  0  0  0  0  0  0  0  0  0  0
   -7.0438   -0.5801    0.4013 C   0  0  0  0  0  0  0  0  0  0  0  0
   -5.5361    1.2969    0.0098 C   0  0  0  0  0  0  0  0  0  0  0  0
   -4.9011   -2.3824    0.7636 C   0  0  0  0  0  0  0  0  0  0  0  0
   -3.9278   -3.2713   -0.0078 C   0  0  0  0  0  0  0  0  0  0  0  0
   -4.7260   -2.6588    2.2061 C   0  0  0  0  0  0  0  0  0  0  0  0
    1.1521   -0.3671   -0.4128 C   0  0  0  0  0  0  0  0  0  0  0  0
    1.0962   -1.1475    0.5626 O   0  0  0  0  0  0  0  0  0  0  0  0
    2.3700   -0.3308   -1.1895 C   0  0  0  0  0  0  0  0  0  0  0  0
    2.4546    0.4185   -2.1867 O   0  0  0  0  0  0  0  0  0  0  0  0
    3.4848   -1.1278   -0.8513 N   0  0  0  0  0  0  0  0  0  0  0  0
    4.7084   -1.1183   -1.5987 C   0  0  2  0  0  0  0  0  0  0  0  0
    5.0954   -2.4617   -2.1282 C   0  0  0  0  0  0  0  0  0  0  0  0
    5.7890   -0.5376   -0.7563 C   0  0  0  0  0  0  0  0  0  0  0  0
    5.6092    0.5972   -0.0156 C   0  0  0  0  0  0  0  0  0  0  0  0
    6.6066    1.1519    0.7743 C   0  0  0  0  0  0  0  0  0  0  0  0
    7.8249    0.5249    0.8062 C   0  0  0  0  0  0  0  0  0  0  0  0
    8.0286   -0.6193    0.0685 C   0  0  0  0  0  0  0  0  0  0  0  0
    7.0187   -1.1497   -0.7091 C   0  0  0  0  0  0  0  0  0  0  0  0
   -0.2728    5.5060    0.8630 H   0  0  0  0  0  0  0  0  0  0  0  0
   -0.1981    4.6472   -0.7623 H   0  0  0  0  0  0  0  0  0  0  0  0
   -1.0354    3.9103    0.6251 H   0  0  0  0  0  0  0  0  0  0  0  0
    1.3963    4.1852    1.7259 H   0  0  0  0  0  0  0  0  0  0  0  0
    1.9562    4.0470    0.0334 H   0  0  0  0  0  0  0  0  0  0  0  0
   -0.0203    2.1949    1.4740 H   0  0  0  0  0  0  0  0  0  0  0  0
    1.7183    1.7639    1.0320 H   0  0  0  0  0  0  0  0  0  0  0  0
    1.1378    2.2533   -1.3555 H   0  0  0  0  0  0  0  0  0  0  0  0
   -0.5237    2.6065   -0.8877 H   0  0  0  0  0  0  0  0  0  0  0  0
   -0.3910    0.3327   -1.7839 H   0  0  0  0  0  0  0  0  0  0  0  0
   -0.8754    0.2410    1.1690 H   0  0  0  0  0  0  0  0  0  0  0  0
   -4.6924   -0.9844   -0.7812 H   0  0  0  0  0  0  0  0  0  0  0  0
   -5.7249    0.2172    1.8512 H   0  0  0  0  0  0  0  0  0  0  0  0
   -7.8226    0.2292    0.3691 H   0  0  0  0  0  0  0  0  0  0  0  0
   -7.3560   -1.3802    1.1240 H   0  0  0  0  0  0  0  0  0  0  0  0
   -6.9525   -1.0532   -0.5834 H   0  0  0  0  0  0  0  0  0  0  0  0
   -4.7814    1.9426    0.5435 H   0  0  0  0  0  0  0  0  0  0  0  0
   -5.1667    1.1684   -1.0053 H   0  0  0  0  0  0  0  0  0  0  0  0
   -6.4629    1.9010   -0.0307 H   0  0  0  0  0  0  0  0  0  0  0  0
   -5.9246   -2.6706    0.4514 H   0  0  0  0  0  0  0  0  0  0  0  0
   -2.9109   -3.1197    0.3891 H   0  0  0  0  0  0  0  0  0  0  0  0
   -4.1970   -4.3364    0.1270 H   0  0  0  0  0  0  0  0  0  0  0  0
   -3.8983   -2.9726   -1.0809 H   0  0  0  0  0  0  0  0  0  0  0  0
   -5.3638   -3.5578    2.4590 H   0  0  0  0  0  0  0  0  0  0  0  0
   -5.0386   -1.8723    2.8915 H   0  0  0  0  0  0  0  0  0  0  0  0
   -3.6882   -2.9850    2.4847 H   0  0  0  0  0  0  0  0  0  0  0  0
    3.4446   -1.7699   -0.0145 H   0  0  0  0  0  0  0  0  0  0  0  0
    4.5767   -0.4114   -2.4460 H   0  0  0  0  0  0  0  0  0  0  0  0
    4.2528   -2.9819   -2.6110 H   0  0  0  0  0  0  0  0  0  0  0  0
    5.9165   -2.3807   -2.8508 H   0  0  0  0  0  0  0  0  0  0  0  0
    5.4636   -3.0609   -1.2498 H   0  0  0  0  0  0  0  0  0  0  0  0
    4.6450    1.0848   -0.0470 H   0  0  0  0  0  0  0  0  0  0  0  0
    6.4495    2.0482    1.3529 H   0  0  0  0  0  0  0  0  0  0  0  0
    8.6212    0.9294    1.4095 H   0  0  0  0  0  0  0  0  0  0  0  0
    8.9884   -1.0907    0.1098 H   0  0  0  0  0  0  0  0  0  0  0  0
    7.2508   -2.0474   -1.2595 H   0  0  0  0  0  0  0  0  0  0  0  0
  1  2  1  0
  2  3  1  0
  3  4  1  0
  4  5  1  0
  5  6  1  0
  6  7  1  0
  7  8  2  0
  7  9  1  0
  9 10  1  0
 10 11  1  0
 11 12  1  0
 11 13  1  0
 10 14  1  0
 14 15  1  0
 14 16  1  0
  5 17  1  0
 17 18  2  0
 17 19  1  0
 19 20  2  0
 19 21  1  0
 21 22  1  0
 22 23  1  0
 22 24  1  0
 24 25  2  0
 25 26  1  0
 26 27  2  0
 27 28  1  0
 28 29  2  0
 29 24  1  0
  1 30  1  0
  1 31  1  0
  1 32  1  0
  2 33  1  0
  2 34  1  0
  3 35  1  0
  3 36  1  0
  4 37  1  0
  4 38  1  0
  5 39  1  6
  6 40  1  0
 10 41  1  0
 11 42  1  0
 12 43  1  0
 12 44  1  0
 12 45  1  0
 13 46  1  0
 13 47  1  0
 13 48  1  0
 14 49  1  0
 15 50  1  0
 15 51  1  0
 15 52  1  0
 16 53  1  0
 16 54  1  0
 16 55  1  0
 21 56  1  0
 22 57  1  6
 23 58  1  0
 23 59  1  0
 23 60  1  0
 25 61  1  0
 26 62  1  0
 27 63  1  0
 28 64  1  0
 29 65  1  0
M  END
$$$$
[H]O[C@]1([H])C([H])([H])C([H])([H])C([H])([H])C([H])([H])[C@@]1([H])N1C([H])([H])C([H])([H])C([H])(c2c([H])c([H])c(F)c([H])c2[H])C([H])([H])C1([H])[H]
     RDKit          3D

 44 46  0  0  0  0  0  0  0  0999 V2000
    3.3007   -1.2804   -1.7304 O   0  0  0  0  0  0  0  0  0  0  0  0
    2.9100   -0.0585   -1.1835 C   0  0  2  0  0  0  0  0  0  0  0  0
    4.1283    0.7844   -0.9163 C   0  0  0  0  0  0  0  0  0  0  0  0
    4.9390    0.0447    0.1483 C   0  0  0  0  0  0  0  0  0  0  0  0
    4.1829    0.2529    1.4551 C   0  0  0  0  0  0  0  0  0  0  0  0
    2.7266    0.4973    1.2514 C   0  0  0  0  0  0  0  0  0  0  0  0
    2.1226   -0.2724    0.0998 C   0  0  1  0  0  0  0  0  0  0  0  0
    0.8050    0.2126   -0.1250 N   0  0  0  0  0  0  0  0  0  0  0  0
    0.0492   -0.4221   -1.1200 C   0  0  0  0  0  0  0  0  0  0  0  0
   -1.2440   -1.0543   -0.6898 C   0  0  0  0  0  0  0  0  0  0  0  0
   -1.9198   -0.3272    0.4463 C   0  0  0  0  0  0  0  0  0  0  0  0
   -1.2955    1.0490    0.5599 C   0  0  0  0  0  0  0  0  0  0  0  0
    0.1487    0.8195    0.9625 C   0  0  0  0  0  0  0  0  0  0  0  0
   -3.3863   -0.2492    0.2712 C   0  0  0  0  0  0  0  0  0  0  0  0
   -4.2174   -0.8408    1.1994 C   0  0  0  0  0  0  0  0  0  0  0  0
   -5.6092   -0.7953    1.0795 C   0  0  0  0  0  0  0  0  0  0  0  0
   -6.1947   -0.1459    0.0109 C   0  0  0  0  0  0  0  0  0  0  0  0
   -7.5427   -0.0766   -0.1469 F   0  0  0  0  0  0  0  0  0  0  0  0
   -5.3591    0.4445   -0.9148 C   0  0  0  0  0  0  0  0  0  0  0  0
   -3.9733    0.3977   -0.7933 C   0  0  0  0  0  0  0  0  0  0  0  0
    3.3915   -1.9787   -1.0213 H   0  0  0  0  0  0  0  0  0  0  0  0
    2.3187    0.4592   -1.9609 H   0  0  0  0  0  0  0  0  0  0  0  0
    4.6954    0.8916   -1.8629 H   0  0  0  0  0  0  0  0  0  0  0  0
    3.8102    1.7503   -0.5118 H   0  0  0  0  0  0  0  0  0  0  0  0
    5.9320    0.5138    0.1696 H   0  0  0  0  0  0  0  0  0  0  0  0
    4.9592   -1.0338   -0.1050 H   0  0  0  0  0  0  0  0  0  0  0  0
    4.3982   -0.5643    2.1651 H   0  0  0  0  0  0  0  0  0  0  0  0
    4.6448    1.1799    1.9066 H   0  0  0  0  0  0  0  0  0  0  0  0
    2.5696    1.5962    1.1063 H   0  0  0  0  0  0  0  0  0  0  0  0
    2.1903    0.1540    2.1720 H   0  0  0  0  0  0  0  0  0  0  0  0
    2.1263   -1.3465    0.3636 H   0  0  0  0  0  0  0  0  0  0  0  0
   -0.1368    0.3037   -1.9629 H   0  0  0  0  0  0  0  0  0  0  0  0
    0.6847   -1.2207   -1.5927 H   0  0  0  0  0  0  0  0  0  0  0  0
   -1.0271   -2.1126   -0.4346 H   0  0  0  0  0  0  0  0  0  0  0  0
   -1.9321   -1.0924   -1.5746 H   0  0  0  0  0  0  0  0  0  0  0  0
   -1.6495   -0.8774    1.3702 H   0  0  0  0  0  0  0  0  0  0  0  0
   -1.8288    1.6885    1.2870 H   0  0  0  0  0  0  0  0  0  0  0  0
   -1.2528    1.5544   -0.4487 H   0  0  0  0  0  0  0  0  0  0  0  0
    0.1025    0.1430    1.8652 H   0  0  0  0  0  0  0  0  0  0  0  0
    0.5487    1.8074    1.2669 H   0  0  0  0  0  0  0  0  0  0  0  0
   -3.7561   -1.3496    2.0367 H   0  0  0  0  0  0  0  0  0  0  0  0
   -6.2248   -1.2744    1.8330 H   0  0  0  0  0  0  0  0  0  0  0  0
   -5.8042    0.9640   -1.7683 H   0  0  0  0  0  0  0  0  0  0  0  0
   -3.3307    0.8642   -1.5257 H   0  0  0  0  0  0  0  0  0  0  0  0
  1  2  1  0
  2  3  1  0
  3  4  1  0
  4  5  1  0
  5  6  1  0
  6  7  1  0
  7  8  1  0
  8  9  1  0
  9 10  1  0
 10 11  1  0
 11 12  1  0
 12 13  1  0
 11 14  1  0
 14 15  2  0
 15 16  1  0
 16 17  2  0
 17 18  1  0
 17 19  1  0
 19 20  2  0
  7  2  1  0
 13  8  1  0
 20 14  1  0
  1 21  1  0
  2 22  1  6
  3 23  1  0
  3 24  1  0
  4 25  1  0
  4 26  1  0
  5 27  1  0
  5 28  1  0
  6 29  1  0
  6 30  1  0
  7 31  1  1
  9 32  1  0
  9 33  1  0
 10 34  1  0
 10 35  1  0
 11 36  1  0
 12 37  1  0
 12 38  1  0
 13 39  1  0
 13 40  1  0
 15 41  1  0
 16 42  1  0
 19 43  1  0
 20 44  1  0
M  END
$$$$
[H]OC(=O)[C@@]([H])(N([H])C(=O)[C@@]([H])(N([H])C(=O)c1c([H])c(OC([H])([H])[H])c(OC([H])([H])[H])c(OC([H])([H])[H])c1[H])C([H])([H])c1c([H])n([H])c2c([H])c([H])c([H])c([H])c12)C([H])([H])C(C([H])([H])[H])(C([H])([H])[H])C([H])([H])[H]
     RDKit          3D

 73 75  0  0  0  0  0  0  0  0999 V2000
    3.6695   -3.6382   -0.8458 C   0  0  0  0  0  0  0  0  0  0  0  0
    4.7290   -2.9272   -0.2041 O   0  0  0  0  0  0  0  0  0  0  0  0
    4.4500   -1.6565    0.2680 C   0  0  0  0  0  0  0  0  0  0  0  0
    3.1960   -1.0758    0.1337 C   0  0  0  0  0  0  0  0  0  0  0  0
    2.9033    0.2002    0.6033 C   0  0  0  0  0  0  0  0  0  0  0  0
    3.9475    0.8762    1.2245 C   0  0  0  0  0  0  0  0  0  0  0  0
    5.2066    0.3373    1.3791 C   0  0  0  0  0  0  0  0  0  0  0  0
    6.2477    1.0113    1.9985 O   0  0  0  0  0  0  0  0  0  0  0  0
    5.9693    2.3115    2.4826 C   0  0  0  0  0  0  0  0  0  0  0  0
    5.4418   -0.9334    0.8941 C   0  0  0  0  0  0  0  0  0  0  0  0
    6.6786   -1.4893    1.0347 O   0  0  0  0  0  0  0  0  0  0  0  0
    7.0968   -2.2692    2.1340 C   0  0  0  0  0  0  0  0  0  0  0  0
    1.5985    0.8277    0.4719 C   0  0  0  0  0  0  0  0  0  0  0  0
    1.4164    1.9399    1.0260 O   0  0  0  0  0  0  0  0  0  0  0  0
    0.5371    0.2377   -0.2494 N   0  0  0  0  0  0  0  0  0  0  0  0
   -0.7796    0.8240   -0.4032 C   0  0  1  0  0  0  0  0  0  0  0  0
   -1.1425    1.0733   -1.8293 C   0  0  0  0  0  0  0  0  0  0  0  0
   -0.1543    2.0164   -2.4206 C   0  0  0  0  0  0  0  0  0  0  0  0
    0.8854    1.6689   -3.2722 C   0  0  0  0  0  0  0  0  0  0  0  0
    1.5431    2.7885   -3.5790 N   0  0  0  0  0  0  0  0  0  0  0  0
    0.9887    3.8634   -2.9703 C   0  0  0  0  0  0  0  0  0  0  0  0
    1.2643    5.2092   -2.9488 C   0  0  0  0  0  0  0  0  0  0  0  0
    0.4671    6.0607   -2.1960 C   0  0  0  0  0  0  0  0  0  0  0  0
   -0.5931    5.5742   -1.4731 C   0  0  0  0  0  0  0  0  0  0  0  0
   -0.8769    4.2225   -1.4896 C   0  0  0  0  0  0  0  0  0  0  0  0
   -0.0703    3.3824   -2.2474 C   0  0  0  0  0  0  0  0  0  0  0  0
   -1.7937   -0.0099    0.3004 C   0  0  0  0  0  0  0  0  0  0  0  0
   -1.4137   -1.0207    0.9041 O   0  0  0  0  0  0  0  0  0  0  0  0
   -3.1265    0.3773    0.2519 N   0  0  0  0  0  0  0  0  0  0  0  0
   -4.1426   -0.4984    0.9965 C   0  0  1  0  0  0  0  0  0  0  0  0
   -4.3656   -1.6237    0.1200 C   0  0  0  0  0  0  0  0  0  0  0  0
   -5.3864   -2.6256    0.4140 C   0  0  0  0  0  0  0  0  0  0  0  0
   -5.3182   -3.6264   -0.8018 C   0  0  0  0  0  0  0  0  0  0  0  0
   -6.7559   -1.9255    0.3212 C   0  0  0  0  0  0  0  0  0  0  0  0
   -5.3720   -3.4296    1.6426 C   0  0  0  0  0  0  0  0  0  0  0  0
   -3.4925   -0.7142    2.2934 C   0  0  0  0  0  0  0  0  0  0  0  0
   -3.3694   -1.8158    3.0492 O   0  0  0  0  0  0  0  0  0  0  0  0
   -2.9155    0.3443    2.8343 O   0  0  0  0  0  0  0  0  0  0  0  0
    3.9829   -4.6260   -1.2132 H   0  0  0  0  0  0  0  0  0  0  0  0
    3.2048   -3.0152   -1.6438 H   0  0  0  0  0  0  0  0  0  0  0  0
    2.8342   -3.8378   -0.1122 H   0  0  0  0  0  0  0  0  0  0  0  0
    2.4129   -1.6487   -0.3594 H   0  0  0  0  0  0  0  0  0  0  0  0
    3.7767    1.8754    1.6107 H   0  0  0  0  0  0  0  0  0  0  0  0
    5.1443    2.2339    3.2203 H   0  0  0  0  0  0  0  0  0  0  0  0
    6.8726    2.8087    2.8874 H   0  0  0  0  0  0  0  0  0  0  0  0
    5.5472    2.8866    1.6116 H   0  0  0  0  0  0  0  0  0  0  0  0
    8.1806   -2.1277    2.3462 H   0  0  0  0  0  0  0  0  0  0  0  0
    6.4715   -2.1252    3.0324 H   0  0  0  0  0  0  0  0  0  0  0  0
    6.9696   -3.3346    1.8405 H   0  0  0  0  0  0  0  0  0  0  0  0
    0.6951   -0.7042   -0.7213 H   0  0  0  0  0  0  0  0  0  0  0  0
   -0.7550    1.7904    0.1404 H   0  0  0  0  0  0  0  0  0  0  0  0
   -2.1330    1.5698   -1.8553 H   0  0  0  0  0  0  0  0  0  0  0  0
   -1.1779    0.1207   -2.4103 H   0  0  0  0  0  0  0  0  0  0  0  0
    1.0763    0.6418   -3.5960 H   0  0  0  0  0  0  0  0  0  0  0  0
    2.3621    2.8376   -4.1936 H   0  0  0  0  0  0  0  0  0  0  0  0
    2.0909    5.6159   -3.5085 H   0  0  0  0  0  0  0  0  0  0  0  0
    0.6685    7.1262   -2.1663 H   0  0  0  0  0  0  0  0  0  0  0  0
   -1.2391    6.2172   -0.8717 H   0  0  0  0  0  0  0  0  0  0  0  0
   -1.7087    3.8554   -0.9201 H   0  0  0  0  0  0  0  0  0  0  0  0
   -3.5307    1.1801   -0.2240 H   0  0  0  0  0  0  0  0  0  0  0  0
   -4.9930    0.2132    1.1653 H   0  0  0  0  0  0  0  0  0  0  0  0
   -4.5679   -1.2209   -0.9526 H   0  0  0  0  0  0  0  0  0  0  0  0
   -3.3607   -2.2044   -0.0616 H   0  0  0  0  0  0  0  0  0  0  0  0
   -6.3001   -4.1315   -0.7694 H   0  0  0  0  0  0  0  0  0  0  0  0
   -5.1488   -3.0026   -1.6836 H   0  0  0  0  0  0  0  0  0  0  0  0
   -4.4656   -4.2764   -0.5486 H   0  0  0  0  0  0  0  0  0  0  0  0
   -7.5383   -2.5673    0.7589 H   0  0  0  0  0  0  0  0  0  0  0  0
   -6.7069   -0.9750    0.8917 H   0  0  0  0  0  0  0  0  0  0  0  0
   -6.9778   -1.6723   -0.7418 H   0  0  0  0  0  0  0  0  0  0  0  0
   -6.1337   -4.3011    1.4558 H   0  0  0  0  0  0  0  0  0  0  0  0
   -4.4552   -4.0121    1.8559 H   0  0  0  0  0  0  0  0  0  0  0  0
   -5.8175   -2.9117    2.5257 H   0  0  0  0  0  0  0  0  0  0  0  0
   -2.4481   -2.1456    3.3631 H   0  0  0  0  0  0  0  0  0  0  0  0
  1  2  1  0
  2  3  1  0
  3  4  2  0
  4  5  1  0
  5  6  2  0
  6  7  1  0
  7  8  1  0
  8  9  1  0
  7 10  2  0
 10 11  1  0
 11 12  1  0
  5 13  1  0
 13 14  2  0
 13 15  1  0
 15 16  1  0
 16 17  1  0
 17 18  1  0
 18 19  2  0
 19 20  1  0
 20 21  1  0
 21 22  2  0
 22 23  1  0
 23 24  2  0
 24 25  1  0
 25 26  2  0
 16 27  1  0
 27 28  2  0
 27 29  1  0
 29 30  1  0
 30 31  1  0
 31 32  1  0
 32 33  1  0
 32 34  1  0
 32 35  1  0
 30 36  1  0
 36 37  1  0
 36 38  2  0
 10  3  1  0
 26 18  1  0
 26 21  1  0
  1 39  1  0
  1 40  1  0
  1 41  1  0
  4 42  1  0
  6 43  1  0
  9 44  1  0
  9 45  1  0
  9 46  1  0
 12 47  1  0
 12 48  1  0
 12 49  1  0
 15 50  1  0
 16 51  1  1
 17 52  1  0
 17 53  1  0
 19 54  1  0
 20 55  1  0
 22 56  1  0
 23 57  1  0
 24 58  1  0
 25 59  1  0
 29 60  1  0
 30 61  1  1
 31 62  1  0
 31 63  1  0
 33 64  1  0
 33 65  1  0
 33 66  1  0
 34 67  1  0
 34 68  1  0
 34 69  1  0
 35 70  1  0
 35 71  1  0
 35 72  1  0
 37 73  1  0
M  END
$$$$
[H]N=C(N([H])[H])N([H])C([H])([H])C([H])([H])C([H])([H])[C@@]1([H])C(=O)N2C([H])([H])C([H])([H])C([H])([H])[C@@]2([H])C(=O)N([H])[C@]([H])(C([H])([H])c2c([H])c([H])c([H])c([H])c2[H])C(=O)N2C([H])([H])C([H])([H])C([H])([H])[C@@]2([H])C(=O)N1[H]
     RDKit          3D

 71 74  0  0  0  0  0  0  0  0999 V2000
    6.2591    1.7085    0.1193 N   0  0  0  0  0  0  0  0  0  0  0  0
    7.0882    0.7458   -0.4826 C   0  0  0  0  0  0  0  0  0  0  0  0
    8.3394    1.0452   -0.6404 N   0  0  0  0  0  0  0  0  0  0  0  0
    6.5851   -0.5008   -0.9034 N   0  0  0  0  0  0  0  0  0  0  0  0
    5.5860   -1.3014   -0.2395 C   0  0  0  0  0  0  0  0  0  0  0  0
    4.1957   -0.7240   -0.2712 C   0  0  0  0  0  0  0  0  0  0  0  0
    3.2065   -1.6341    0.4379 C   0  0  0  0  0  0  0  0  0  0  0  0
    1.7988   -1.0084    0.3938 C   0  0  2  0  0  0  0  0  0  0  0  0
    1.4762   -0.8774   -1.0075 N   0  0  0  0  0  0  0  0  0  0  0  0
    0.5681   -1.7125   -1.6988 C   0  0  0  0  0  0  0  0  0  0  0  0
    0.8676   -2.2201   -2.8055 O   0  0  0  0  0  0  0  0  0  0  0  0
   -0.8058   -2.0656   -1.1943 C   0  0  2  0  0  0  0  0  0  0  0  0
   -0.9735   -3.5032   -0.8851 C   0  0  0  0  0  0  0  0  0  0  0  0
   -1.9187   -4.0611   -1.9133 C   0  0  0  0  0  0  0  0  0  0  0  0
   -2.0142   -2.9795   -2.9695 C   0  0  0  0  0  0  0  0  0  0  0  0
   -1.7963   -1.7442   -2.2400 N   0  0  0  0  0  0  0  0  0  0  0  0
   -2.3357   -0.4557   -2.4253 C   0  0  0  0  0  0  0  0  0  0  0  0
   -2.2002    0.0614   -3.6077 O   0  0  0  0  0  0  0  0  0  0  0  0
   -3.0496    0.3987   -1.4300 C   0  0  1  0  0  0  0  0  0  0  0  0
   -3.8881   -0.4034   -0.4913 C   0  0  0  0  0  0  0  0  0  0  0  0
   -4.6502    0.3729    0.4954 C   0  0  0  0  0  0  0  0  0  0  0  0
   -5.8979    0.9303    0.2093 C   0  0  0  0  0  0  0  0  0  0  0  0
   -6.6027    1.6239    1.1673 C   0  0  0  0  0  0  0  0  0  0  0  0
   -6.1036    1.7999    2.4624 C   0  0  0  0  0  0  0  0  0  0  0  0
   -4.8745    1.2484    2.7372 C   0  0  0  0  0  0  0  0  0  0  0  0
   -4.1861    0.5584    1.7640 C   0  0  0  0  0  0  0  0  0  0  0  0
   -2.3186    1.5043   -0.9292 N   0  0  0  0  0  0  0  0  0  0  0  0
   -1.0609    1.6926   -0.3850 C   0  0  0  0  0  0  0  0  0  0  0  0
   -0.1808    2.2890   -1.1310 O   0  0  0  0  0  0  0  0  0  0  0  0
   -0.5194    1.3269    0.9456 C   0  0  2  0  0  0  0  0  0  0  0  0
   -0.8606    2.4413    1.9643 C   0  0  0  0  0  0  0  0  0  0  0  0
    0.1814    3.5007    1.6942 C   0  0  0  0  0  0  0  0  0  0  0  0
    1.3084    2.7382    1.0869 C   0  0  0  0  0  0  0  0  0  0  0  0
    0.8999    1.3244    1.0580 N   0  0  0  0  0  0  0  0  0  0  0  0
    1.7629    0.2122    1.1785 C   0  0  0  0  0  0  0  0  0  0  0  0
    2.6683    0.2484    2.1151 O   0  0  0  0  0  0  0  0  0  0  0  0
    6.3761    1.9696    1.1445 H   0  0  0  0  0  0  0  0  0  0  0  0
    5.4899    2.2301   -0.3582 H   0  0  0  0  0  0  0  0  0  0  0  0
    8.7495    1.9561   -0.3429 H   0  0  0  0  0  0  0  0  0  0  0  0
    7.0219   -0.8539   -1.8222 H   0  0  0  0  0  0  0  0  0  0  0  0
    5.5961   -2.3192   -0.7074 H   0  0  0  0  0  0  0  0  0  0  0  0
    5.9562   -1.4335    0.8062 H   0  0  0  0  0  0  0  0  0  0  0  0
    3.9160   -0.6560   -1.3569 H   0  0  0  0  0  0  0  0  0  0  0  0
    4.2243    0.2617    0.2243 H   0  0  0  0  0  0  0  0  0  0  0  0
    3.5386   -1.8200    1.4760 H   0  0  0  0  0  0  0  0  0  0  0  0
    3.2122   -2.6102   -0.0880 H   0  0  0  0  0  0  0  0  0  0  0  0
    1.1441   -1.7482    0.9077 H   0  0  0  0  0  0  0  0  0  0  0  0
    1.9564   -0.1157   -1.5274 H   0  0  0  0  0  0  0  0  0  0  0  0
   -1.0433   -1.4883   -0.2834 H   0  0  0  0  0  0  0  0  0  0  0  0
   -0.0091   -4.0692   -0.9435 H   0  0  0  0  0  0  0  0  0  0  0  0
   -1.3396   -3.6781    0.1526 H   0  0  0  0  0  0  0  0  0  0  0  0
   -1.6173   -5.0160   -2.3397 H   0  0  0  0  0  0  0  0  0  0  0  0
   -2.8979   -4.2055   -1.4064 H   0  0  0  0  0  0  0  0  0  0  0  0
   -1.2564   -3.1224   -3.7718 H   0  0  0  0  0  0  0  0  0  0  0  0
   -2.9841   -3.0996   -3.4562 H   0  0  0  0  0  0  0  0  0  0  0  0
   -3.8956    0.8447   -2.1146 H   0  0  0  0  0  0  0  0  0  0  0  0
   -4.6266   -1.0216   -1.0980 H   0  0  0  0  0  0  0  0  0  0  0  0
   -3.3431   -1.1735    0.0886 H   0  0  0  0  0  0  0  0  0  0  0  0
   -6.3144    0.8205   -0.7638 H   0  0  0  0  0  0  0  0  0  0  0  0
   -7.5758    2.0620    0.9561 H   0  0  0  0  0  0  0  0  0  0  0  0
   -6.6671    2.3469    3.2077 H   0  0  0  0  0  0  0  0  0  0  0  0
   -4.4708    1.3724    3.7293 H   0  0  0  0  0  0  0  0  0  0  0  0
   -3.2165    0.1380    2.0319 H   0  0  0  0  0  0  0  0  0  0  0  0
   -2.8717    2.4600   -1.0047 H   0  0  0  0  0  0  0  0  0  0  0  0
   -0.9761    0.3627    1.2349 H   0  0  0  0  0  0  0  0  0  0  0  0
   -1.8854    2.7574    1.7495 H   0  0  0  0  0  0  0  0  0  0  0  0
   -0.7953    2.0430    2.9791 H   0  0  0  0  0  0  0  0  0  0  0  0
   -0.2387    4.2147    0.9473 H   0  0  0  0  0  0  0  0  0  0  0  0
    0.4465    4.0216    2.6365 H   0  0  0  0  0  0  0  0  0  0  0  0
    1.6662    3.1196    0.1356 H   0  0  0  0  0  0  0  0  0  0  0  0
    2.1763    2.8699    1.7932 H   0  0  0  0  0  0  0  0  0  0  0  0
  1  2  1  0
  2  3  2  3
  2  4  1  0
  4  5  1  0
  5  6  1  0
  6  7  1  0
  7  8  1  0
  8  9  1  0
  9 10  1  0
 10 11  2  0
 10 12  1  0
 12 13  1  0
 13 14  1  0
 14 15  1  0
 15 16  1  0
 16 17  1  0
 17 18  2  0
 17 19  1  0
 19 20  1  0
 20 21  1  0
 21 22  2  0
 22 23  1  0
 23 24  2  0
 24 25  1  0
 25 26  2  0
 19 27  1  0
 27 28  1  0
 28 29  2  0
 28 30  1  0
 30 31  1  0
 31 32  1  0
 32 33  1  0
 33 34  1  0
 34 35  1  0
 35 36  2  0
 35  8  1  0
 16 12  1  0
 26 21  1  0
 34 30  1  0
  1 37  1  0
  1 38  1  0
  3 39  1  0
  4 40  1  0
  5 41  1  0
  5 42  1  0
  6 43  1  0
  6 44  1  0
  7 45  1  0
  7 46  1  0
  8 47  1  1
  9 48  1  0
 12 49  1  1
 13 50  1  0
 13 51  1  0
 14 52  1  0
 14 53  1  0
 15 54  1  0
 15 55  1  0
 19 56  1  6
 20 57  1  0
 20 58  1  0
 22 59  1  0
 23 60  1  0
 24 61  1  0
 25 62  1  0
 26 63  1  0
 27 64  1  0
 30 65  1  1
 31 66  1  0
 31 67  1  0
 32 68  1  0
 32 69  1  0
 33 70  1  0
 33 71  1  0
M  END
$$$$
[H]Oc1c([H])c([H])c([C@@]2([H])Sc3c([H])c(O[H])c([H])c([H])c3O[C@@]2([H])c2c([H])c([H])c(OC([H])([H])[C@@]([H])(N3C([H])([H])C([H])([H])OC([H])([H])C3([H])[H])C([H])([H])[H])c([H])c2[H])c([H])c1[H]
     RDKit          3D

 63 67  0  0  0  0  0  0  0  0999 V2000
    4.2612   -2.4878    0.2296 C   0  0  0  0  0  0  0  0  0  0  0  0
    4.4512   -1.1425   -0.3925 C   0  0  1  0  0  0  0  0  0  0  0  0
    3.1693   -0.3555   -0.2602 C   0  0  0  0  0  0  0  0  0  0  0  0
    2.1363   -1.1157   -0.8071 O   0  0  0  0  0  0  0  0  0  0  0  0
    0.8057   -0.7260   -0.8700 C   0  0  0  0  0  0  0  0  0  0  0  0
   -0.1074   -1.5844   -1.4409 C   0  0  0  0  0  0  0  0  0  0  0  0
   -1.4454   -1.2636   -1.5375 C   0  0  0  0  0  0  0  0  0  0  0  0
   -1.9330   -0.0430   -1.0553 C   0  0  0  0  0  0  0  0  0  0  0  0
   -1.0115    0.8035   -0.4885 C   0  0  0  0  0  0  0  0  0  0  0  0
    0.3463    0.4736   -0.3925 C   0  0  0  0  0  0  0  0  0  0  0  0
   -3.3722    0.3001   -1.1729 C   0  0  2  0  0  0  0  0  0  0  0  0
   -3.5256    1.6106   -1.5884 O   0  0  0  0  0  0  0  0  0  0  0  0
   -4.0069    2.6967   -0.9156 C   0  0  0  0  0  0  0  0  0  0  0  0
   -4.2204    3.8824   -1.6385 C   0  0  0  0  0  0  0  0  0  0  0  0
   -4.6987    4.9925   -1.0143 C   0  0  0  0  0  0  0  0  0  0  0  0
   -4.9838    4.9906    0.3206 C   0  0  0  0  0  0  0  0  0  0  0  0
   -5.4675    6.1007    0.9703 O   0  0  0  0  0  0  0  0  0  0  0  0
   -4.7635    3.7946    1.0269 C   0  0  0  0  0  0  0  0  0  0  0  0
   -4.2900    2.6867    0.4221 C   0  0  0  0  0  0  0  0  0  0  0  0
   -4.0133    1.1835    1.3030 S   0  0  0  0  0  0  0  0  0  0  0  0
   -4.2115   -0.0850   -0.0002 C   0  0  2  0  0  0  0  0  0  0  0  0
   -4.0916   -1.4472    0.4745 C   0  0  0  0  0  0  0  0  0  0  0  0
   -5.0631   -2.3696    0.1344 C   0  0  0  0  0  0  0  0  0  0  0  0
   -5.0493   -3.6815    0.5422 C   0  0  0  0  0  0  0  0  0  0  0  0
   -4.0051   -4.0990    1.3363 C   0  0  0  0  0  0  0  0  0  0  0  0
   -3.9404   -5.4318    1.7829 O   0  0  0  0  0  0  0  0  0  0  0  0
   -3.0325   -3.1863    1.6802 C   0  0  0  0  0  0  0  0  0  0  0  0
   -3.0529   -1.8717    1.2675 C   0  0  0  0  0  0  0  0  0  0  0  0
    5.5985   -0.4925    0.1237 N   0  0  0  0  0  0  0  0  0  0  0  0
    5.8660    0.8022   -0.4069 C   0  0  0  0  0  0  0  0  0  0  0  0
    7.2999    1.1712   -0.0050 C   0  0  0  0  0  0  0  0  0  0  0  0
    7.9150    0.1310    0.6835 O   0  0  0  0  0  0  0  0  0  0  0  0
    7.2045   -0.1480    1.8504 C   0  0  0  0  0  0  0  0  0  0  0  0
    5.7543   -0.5287    1.5411 C   0  0  0  0  0  0  0  0  0  0  0  0
    5.1793   -3.1029    0.1973 H   0  0  0  0  0  0  0  0  0  0  0  0
    3.4694   -3.0155   -0.3734 H   0  0  0  0  0  0  0  0  0  0  0  0
    3.8481   -2.3753    1.2418 H   0  0  0  0  0  0  0  0  0  0  0  0
    4.6077   -1.2976   -1.4961 H   0  0  0  0  0  0  0  0  0  0  0  0
    3.0014   -0.0996    0.8023 H   0  0  0  0  0  0  0  0  0  0  0  0
    3.2194    0.6202   -0.8086 H   0  0  0  0  0  0  0  0  0  0  0  0
    0.2415   -2.5521   -1.8302 H   0  0  0  0  0  0  0  0  0  0  0  0
   -2.1775   -1.9310   -1.9854 H   0  0  0  0  0  0  0  0  0  0  0  0
   -1.3646    1.7527   -0.1101 H   0  0  0  0  0  0  0  0  0  0  0  0
    1.0283    1.1650    0.0575 H   0  0  0  0  0  0  0  0  0  0  0  0
   -3.8192   -0.3180   -2.0359 H   0  0  0  0  0  0  0  0  0  0  0  0
   -4.0109    3.9360   -2.6954 H   0  0  0  0  0  0  0  0  0  0  0  0
   -4.8605    5.9077   -1.5860 H   0  0  0  0  0  0  0  0  0  0  0  0
   -4.7930    6.7379    1.3703 H   0  0  0  0  0  0  0  0  0  0  0  0
   -5.0080    3.8459    2.0952 H   0  0  0  0  0  0  0  0  0  0  0  0
   -5.2792    0.0751   -0.3683 H   0  0  0  0  0  0  0  0  0  0  0  0
   -5.9144   -2.0670   -0.5016 H   0  0  0  0  0  0  0  0  0  0  0  0
   -5.8312   -4.3925    0.2588 H   0  0  0  0  0  0  0  0  0  0  0  0
   -3.4477   -6.1195    1.2026 H   0  0  0  0  0  0  0  0  0  0  0  0
   -2.2141   -3.5317    2.3082 H   0  0  0  0  0  0  0  0  0  0  0  0
   -2.2558   -1.1818    1.5715 H   0  0  0  0  0  0  0  0  0  0  0  0
    5.2030    1.5970    0.0412 H   0  0  0  0  0  0  0  0  0  0  0  0
    5.7584    0.8524   -1.4978 H   0  0  0  0  0  0  0  0  0  0  0  0
    7.9149    1.4046   -0.9104 H   0  0  0  0  0  0  0  0  0  0  0  0
    7.3226    2.0520    0.6594 H   0  0  0  0  0  0  0  0  0  0  0  0
    7.2619    0.7592    2.4826 H   0  0  0  0  0  0  0  0  0  0  0  0
    7.7181   -0.9708    2.3982 H   0  0  0  0  0  0  0  0  0  0  0  0
    5.1139    0.1996    2.0880 H   0  0  0  0  0  0  0  0  0  0  0  0
    5.5658   -1.5101    1.9820 H   0  0  0  0  0  0  0  0  0  0  0  0
  1  2  1  0
  2  3  1  0
  3  4  1  0
  4  5  1  0
  5  6  2  0
  6  7  1  0
  7  8  2  0
  8  9  1  0
  9 10  2  0
  8 11  1  0
 11 12  1  0
 12 13  1  0
 13 14  2  0
 14 15  1  0
 15 16  2  0
 16 17  1  0
 16 18  1  0
 18 19  2  0
 19 20  1  0
 20 21  1  0
 21 22  1  0
 22 23  2  0
 23 24  1  0
 24 25  2  0
 25 26  1  0
 25 27  1  0
 27 28  2  0
  2 29  1  0
 29 30  1  0
 30 31  1  0
 31 32  1  0
 32 33  1  0
 33 34  1  0
 10  5  1  0
 21 11  1  0
 28 22  1  0
 34 29  1  0
 19 13  1  0
  1 35  1  0
  1 36  1  0
  1 37  1  0
  2 38  1  6
  3 39  1  0
  3 40  1  0
  6 41  1  0
  7 42  1  0
  9 43  1  0
 10 44  1  0
 11 45  1  6
 14 46  1  0
 15 47  1  0
 17 48  1  0
 18 49  1  0
 21 50  1  6
 23 51  1  0
 24 52  1  0
 26 53  1  0
 27 54  1  0
 28 55  1  0
 30 56  1  0
 30 57  1  0
 31 58  1  0
 31 59  1  0
 33 60  1  0
 33 61  1  0
 34 62  1  0
 34 63  1  0
M  END
$$$$
[H]ON([H])C(=O)C([H])([H])N(C([H])([H])c1c([H])c([H])c([N+](=O)[O-])c([H])c1[H])S(=O)(=O)c1c(F)c([H])c([H])c([H])c1F
     RDKit          3D

 40 41  0  0  0  0  0  0  0  0999 V2000
   -0.4769    4.5756    2.0510 O   0  0  0  0  0  0  0  0  0  0  0  0
   -0.3569    3.2596    1.6402 N   0  0  0  0  0  0  0  0  0  0  0  0
   -0.6806    2.2055    2.5142 C   0  0  0  0  0  0  0  0  0  0  0  0
   -1.0767    2.4904    3.6786 O   0  0  0  0  0  0  0  0  0  0  0  0
   -0.5766    0.8014    2.1356 C   0  0  0  0  0  0  0  0  0  0  0  0
   -0.1485    0.5752    0.7697 N   0  0  0  0  0  0  0  0  0  0  0  0
    0.8475   -0.4814    0.7670 C   0  0  0  0  0  0  0  0  0  0  0  0
    1.9227   -0.2400   -0.2072 C   0  0  0  0  0  0  0  0  0  0  0  0
    2.8011   -1.2401   -0.5646 C   0  0  0  0  0  0  0  0  0  0  0  0
    3.8236   -1.0500   -1.4656 C   0  0  0  0  0  0  0  0  0  0  0  0
    3.9857    0.1920   -2.0425 C   0  0  0  0  0  0  0  0  0  0  0  0
    3.1325    1.2090   -1.7116 C   0  0  0  0  0  0  0  0  0  0  0  0
    2.1186    0.9783   -0.8031 C   0  0  0  0  0  0  0  0  0  0  0  0
    5.0242    0.4563   -2.9831 N   0  0  0  0  0  0  0  0  0  0  0  0
    5.8750   -0.5576   -3.3131 O   0  0  0  0  0  0  0  0  0  0  0  0
    5.1678    1.5637   -3.4965 O   0  0  0  0  0  0  0  0  0  0  0  0
   -1.3855    0.4163   -0.3672 S   0  0  0  0  0  0  0  0  0  0  0  0
   -2.1647    1.7312   -0.4319 O   0  0  0  0  0  0  0  0  0  0  0  0
   -0.7310    0.3251   -1.7447 O   0  0  0  0  0  0  0  0  0  0  0  0
   -2.4844   -0.9100   -0.1473 C   0  0  0  0  0  0  0  0  0  0  0  0
   -3.6535   -0.8148    0.5731 C   0  0  0  0  0  0  0  0  0  0  0  0
   -4.0139    0.3530    1.1184 F   0  0  0  0  0  0  0  0  0  0  0  0
   -4.5159   -1.9025    0.7355 C   0  0  0  0  0  0  0  0  0  0  0  0
   -4.2228   -3.1233    0.1719 C   0  0  0  0  0  0  0  0  0  0  0  0
   -3.0586   -3.2301   -0.5516 C   0  0  0  0  0  0  0  0  0  0  0  0
   -2.2070   -2.1394   -0.7065 C   0  0  0  0  0  0  0  0  0  0  0  0
   -1.0729   -2.2768   -1.4602 F   0  0  0  0  0  0  0  0  0  0  0  0
   -1.1132    4.9784    1.3788 H   0  0  0  0  0  0  0  0  0  0  0  0
   -0.0100    3.1757    0.6693 H   0  0  0  0  0  0  0  0  0  0  0  0
    0.2404    0.3670    2.8265 H   0  0  0  0  0  0  0  0  0  0  0  0
   -1.4985    0.2134    2.3403 H   0  0  0  0  0  0  0  0  0  0  0  0
    1.3816   -0.4000    1.7853 H   0  0  0  0  0  0  0  0  0  0  0  0
    0.4335   -1.4889    0.7893 H   0  0  0  0  0  0  0  0  0  0  0  0
    2.6653   -2.2103   -0.1065 H   0  0  0  0  0  0  0  0  0  0  0  0
    4.5155   -1.8215   -1.7530 H   0  0  0  0  0  0  0  0  0  0  0  0
    3.2167    2.2118   -2.1393 H   0  0  0  0  0  0  0  0  0  0  0  0
    1.4584    1.7969   -0.5584 H   0  0  0  0  0  0  0  0  0  0  0  0
   -5.4341   -1.8290    1.3021 H   0  0  0  0  0  0  0  0  0  0  0  0
   -4.9029   -3.9730    0.3032 H   0  0  0  0  0  0  0  0  0  0  0  0
   -2.8256   -4.1873   -0.9960 H   0  0  0  0  0  0  0  0  0  0  0  0
  1  2  1  0
  2  3  1  0
  3  4  2  0
  3  5  1  0
  5  6  1  0
  6  7  1  0
  7  8  1  0
  8  9  2  0
  9 10  1  0
 10 11  2  0
 11 12  1  0
 12 13  2  0
 11 14  1  0
 14 15  1  0
 14 16  2  0
  6 17  1  0
 17 18  2  0
 17 19  2  0
 17 20  1  0
 20 21  2  0
 21 22  1  0
 21 23  1  0
 23 24  2  0
 24 25  1  0
 25 26  2  0
 26 27  1  0
 13  8  1  0
 26 20  1  0
  1 28  1  0
  2 29  1  0
  5 30  1  0
  5 31  1  0
  7 32  1  0
  7 33  1  0
  9 34  1  0
 10 35  1  0
 12 36  1  0
 13 37  1  0
 23 38  1  0
 24 39  1  0
 25 40  1  0
M  CHG  2  14   1  15  -1
M  END
$$$$
[H]c1nc(N2C([H])([H])C([H])([H])N(c3c([H])c([H])c([H])c([H])c3OC([H])([H])[H])C([H])([H])C2([H])[H])c2c(n1)n(C([H])([H])[H])c(=O)n2[H]
     RDKit          3D

 45 48  0  0  0  0  0  0  0  0999 V2000
    4.5195   -0.0081   -2.3625 C   0  0  0  0  0  0  0  0  0  0  0  0
    3.6262    0.0617   -1.2730 O   0  0  0  0  0  0  0  0  0  0  0  0
    3.9034    0.6944   -0.0779 C   0  0  0  0  0  0  0  0  0  0  0  0
    5.1441    1.3223    0.1092 C   0  0  0  0  0  0  0  0  0  0  0  0
    5.4010    1.9459    1.3011 C   0  0  0  0  0  0  0  0  0  0  0  0
    4.4913    1.9859    2.3338 C   0  0  0  0  0  0  0  0  0  0  0  0
    3.2861    1.3675    2.1328 C   0  0  0  0  0  0  0  0  0  0  0  0
    2.9668    0.7145    0.9360 C   0  0  0  0  0  0  0  0  0  0  0  0
    1.6999    0.0857    0.8130 N   0  0  0  0  0  0  0  0  0  0  0  0
    0.6303    0.2865    1.7588 C   0  0  0  0  0  0  0  0  0  0  0  0
   -0.6413    0.5091    0.9121 C   0  0  0  0  0  0  0  0  0  0  0  0
   -0.9386   -0.7964    0.3848 N   0  0  0  0  0  0  0  0  0  0  0  0
    0.1369   -1.6131   -0.0637 C   0  0  0  0  0  0  0  0  0  0  0  0
    1.4210   -0.8230   -0.2777 C   0  0  0  0  0  0  0  0  0  0  0  0
   -2.2679   -1.2554    0.3169 C   0  0  0  0  0  0  0  0  0  0  0  0
   -2.7152   -2.3403    0.9618 N   0  0  0  0  0  0  0  0  0  0  0  0
   -4.0041   -2.6845    0.8282 C   0  0  0  0  0  0  0  0  0  0  0  0
   -4.8890   -2.0001    0.0772 N   0  0  0  0  0  0  0  0  0  0  0  0
   -4.4964   -0.9096   -0.5881 C   0  0  0  0  0  0  0  0  0  0  0  0
   -5.1601   -0.0664   -1.3887 N   0  0  0  0  0  0  0  0  0  0  0  0
   -6.5632   -0.0955   -1.7811 C   0  0  0  0  0  0  0  0  0  0  0  0
   -4.2616    0.8498   -1.7810 C   0  0  0  0  0  0  0  0  0  0  0  0
   -4.4582    1.8267   -2.5401 O   0  0  0  0  0  0  0  0  0  0  0  0
   -3.0591    0.5806   -1.2330 N   0  0  0  0  0  0  0  0  0  0  0  0
   -3.1747   -0.5355   -0.4663 C   0  0  0  0  0  0  0  0  0  0  0  0
    4.5513    0.9237   -2.9512 H   0  0  0  0  0  0  0  0  0  0  0  0
    5.5106   -0.2927   -1.9613 H   0  0  0  0  0  0  0  0  0  0  0  0
    4.2077   -0.8852   -2.9941 H   0  0  0  0  0  0  0  0  0  0  0  0
    5.8232    1.2716   -0.7135 H   0  0  0  0  0  0  0  0  0  0  0  0
    6.3650    2.4221    1.4195 H   0  0  0  0  0  0  0  0  0  0  0  0
    4.7248    2.4940    3.2797 H   0  0  0  0  0  0  0  0  0  0  0  0
    2.5631    1.3781    2.9204 H   0  0  0  0  0  0  0  0  0  0  0  0
    0.6882    1.1338    2.4157 H   0  0  0  0  0  0  0  0  0  0  0  0
    0.4482   -0.6286    2.3801 H   0  0  0  0  0  0  0  0  0  0  0  0
   -1.4433    0.9595    1.5028 H   0  0  0  0  0  0  0  0  0  0  0  0
   -0.2906    1.1766    0.0715 H   0  0  0  0  0  0  0  0  0  0  0  0
   -0.1340   -2.0149   -1.0650 H   0  0  0  0  0  0  0  0  0  0  0  0
    0.2978   -2.4969    0.5828 H   0  0  0  0  0  0  0  0  0  0  0  0
    2.1819   -1.6244   -0.3986 H   0  0  0  0  0  0  0  0  0  0  0  0
    1.2365   -0.2242   -1.1917 H   0  0  0  0  0  0  0  0  0  0  0  0
   -4.3752   -3.5740    1.3558 H   0  0  0  0  0  0  0  0  0  0  0  0
   -7.0879    0.6712   -1.1432 H   0  0  0  0  0  0  0  0  0  0  0  0
   -7.0081   -1.0710   -1.5093 H   0  0  0  0  0  0  0  0  0  0  0  0
   -6.6675    0.1383   -2.8524 H   0  0  0  0  0  0  0  0  0  0  0  0
   -2.1889    1.1400   -1.3781 H   0  0  0  0  0  0  0  0  0  0  0  0
  1  2  1  0
  2  3  1  0
  3  4  2  0
  4  5  1  0
  5  6  2  0
  6  7  1  0
  7  8  2  0
  8  9  1  0
  9 10  1  0
 10 11  1  0
 11 12  1  0
 12 13  1  0
 13 14  1  0
 12 15  1  0
 15 16  2  0
 16 17  1  0
 17 18  2  0
 18 19  1  0
 19 20  1  0
 20 21  1  0
 20 22  1  0
 22 23  2  0
 22 24  1  0
 24 25  1  0
  8  3  1  0
 14  9  1  0
 25 15  1  0
 25 19  2  0
  1 26  1  0
  1 27  1  0
  1 28  1  0
  4 29  1  0
  5 30  1  0
  6 31  1  0
  7 32  1  0
 10 33  1  0
 10 34  1  0
 11 35  1  0
 11 36  1  0
 13 37  1  0
 13 38  1  0
 14 39  1  0
 14 40  1  0
 17 41  1  0
 21 42  1  0
 21 43  1  0
 21 44  1  0
 24 45  1  0
M  END
$$$$
[H]c1c([H])c([H])c(S(=O)(=O)[C@@]2([H])C([H])([H])N(C(=O)C3(C#N)C([H])([H])C3([H])[H])[C@]([H])(C(=O)N([H])[C@]([H])(C(=O)C(=O)N([H])C3([H])C([H])([H])C3([H])[H])C([H])([H])C([H])([H])[H])C2([H])[H])c(Cl)c1[H]
     RDKit          3D

 63 66  0  0  0  0  0  0  0  0999 V2000
    2.2207    1.5175   -2.2688 C   0  0  0  0  0  0  0  0  0  0  0  0
    2.3387    0.0251   -2.2941 C   0  0  0  0  0  0  0  0  0  0  0  0
    2.2543   -0.5918   -0.9138 C   0  0  2  0  0  0  0  0  0  0  0  0
    0.9455   -0.2451   -0.3158 N   0  0  0  0  0  0  0  0  0  0  0  0
    0.0383   -1.2487    0.0583 C   0  0  0  0  0  0  0  0  0  0  0  0
    0.3699   -2.4579   -0.1293 O   0  0  0  0  0  0  0  0  0  0  0  0
   -1.2744   -1.0277    0.6538 C   0  0  2  0  0  0  0  0  0  0  0  0
   -2.3100   -1.5949   -0.3801 C   0  0  0  0  0  0  0  0  0  0  0  0
   -2.3691   -0.4293   -1.2937 C   0  0  2  0  0  0  0  0  0  0  0  0
   -2.5250    0.6999   -0.2711 C   0  0  0  0  0  0  0  0  0  0  0  0
   -1.6757    0.3152    0.8341 N   0  0  0  0  0  0  0  0  0  0  0  0
   -1.3877    1.2475    1.8762 C   0  0  0  0  0  0  0  0  0  0  0  0
   -1.9050    2.4164    1.7179 O   0  0  0  0  0  0  0  0  0  0  0  0
   -0.5956    1.0522    3.0810 C   0  0  0  0  0  0  0  0  0  0  0  0
    0.1255    2.2994    3.6235 C   0  0  0  0  0  0  0  0  0  0  0  0
   -1.1098    1.8826    4.2846 C   0  0  0  0  0  0  0  0  0  0  0  0
    0.0404   -0.2074    3.4266 C   0  0  0  0  0  0  0  0  0  0  0  0
    0.5593   -1.2056    3.7356 N   0  0  0  0  0  0  0  0  0  0  0  0
   -3.6148   -0.3725   -2.5008 S   0  0  0  0  0  0  0  0  0  0  0  0
   -3.2751   -1.3476   -3.6177 O   0  0  0  0  0  0  0  0  0  0  0  0
   -3.6215    0.9885   -3.1874 O   0  0  0  0  0  0  0  0  0  0  0  0
   -5.2177   -0.7559   -1.9756 C   0  0  0  0  0  0  0  0  0  0  0  0
   -6.0976    0.3107   -1.7730 C   0  0  0  0  0  0  0  0  0  0  0  0
   -7.3634    0.1180   -1.3003 C   0  0  0  0  0  0  0  0  0  0  0  0
   -7.7916   -1.1573   -1.0135 C   0  0  0  0  0  0  0  0  0  0  0  0
   -6.9458   -2.2092   -1.2070 C   0  0  0  0  0  0  0  0  0  0  0  0
   -5.6620   -2.0225   -1.6868 C   0  0  0  0  0  0  0  0  0  0  0  0
   -4.6255   -3.4105   -2.0020 Cl  0  0  0  0  0  0  0  0  0  0  0  0
    3.3371   -0.1322   -0.0252 C   0  0  0  0  0  0  0  0  0  0  0  0
    3.0430    0.4981    1.0178 O   0  0  0  0  0  0  0  0  0  0  0  0
    4.7216   -0.3998   -0.3408 C   0  0  0  0  0  0  0  0  0  0  0  0
    5.1036   -1.0351   -1.3625 O   0  0  0  0  0  0  0  0  0  0  0  0
    5.7665    0.0615    0.5260 N   0  0  0  0  0  0  0  0  0  0  0  0
    7.1631   -0.1772    0.2584 C   0  0  0  0  0  0  0  0  0  0  0  0
    8.0078   -0.4560    1.4913 C   0  0  0  0  0  0  0  0  0  0  0  0
    8.1078    0.8628    0.7644 C   0  0  0  0  0  0  0  0  0  0  0  0
    2.5282    1.8914   -3.2656 H   0  0  0  0  0  0  0  0  0  0  0  0
    2.9208    1.8878   -1.4778 H   0  0  0  0  0  0  0  0  0  0  0  0
    1.1702    1.8270   -2.0792 H   0  0  0  0  0  0  0  0  0  0  0  0
    1.5249   -0.4476   -2.8906 H   0  0  0  0  0  0  0  0  0  0  0  0
    3.2985   -0.2584   -2.7385 H   0  0  0  0  0  0  0  0  0  0  0  0
    2.3363   -1.6830   -1.0116 H   0  0  0  0  0  0  0  0  0  0  0  0
    0.8090    0.7819   -0.2209 H   0  0  0  0  0  0  0  0  0  0  0  0
   -1.4507   -1.6178    1.5558 H   0  0  0  0  0  0  0  0  0  0  0  0
   -3.2458   -1.7665    0.1450 H   0  0  0  0  0  0  0  0  0  0  0  0
   -1.8948   -2.4795   -0.8390 H   0  0  0  0  0  0  0  0  0  0  0  0
   -1.3562   -0.2276   -1.7405 H   0  0  0  0  0  0  0  0  0  0  0  0
   -3.5713    0.6671    0.0914 H   0  0  0  0  0  0  0  0  0  0  0  0
   -2.2522    1.6745   -0.7152 H   0  0  0  0  0  0  0  0  0  0  0  0
    1.1183    2.1109    4.0782 H   0  0  0  0  0  0  0  0  0  0  0  0
    0.1630    3.1488    2.9025 H   0  0  0  0  0  0  0  0  0  0  0  0
   -0.9984    1.3817    5.2831 H   0  0  0  0  0  0  0  0  0  0  0  0
   -2.0015    2.5137    4.1360 H   0  0  0  0  0  0  0  0  0  0  0  0
   -5.7675    1.3348   -1.9983 H   0  0  0  0  0  0  0  0  0  0  0  0
   -8.0390    0.9651   -1.1469 H   0  0  0  0  0  0  0  0  0  0  0  0
   -8.8059   -1.2915   -0.6353 H   0  0  0  0  0  0  0  0  0  0  0  0
   -7.2460   -3.2395   -0.9911 H   0  0  0  0  0  0  0  0  0  0  0  0
    5.4822    0.5849    1.3707 H   0  0  0  0  0  0  0  0  0  0  0  0
    7.4120   -0.7199   -0.6705 H   0  0  0  0  0  0  0  0  0  0  0  0
    8.8512   -1.1695    1.3404 H   0  0  0  0  0  0  0  0  0  0  0  0
    7.4986   -0.5007    2.4611 H   0  0  0  0  0  0  0  0  0  0  0  0
    9.0305    1.1041    0.2042 H   0  0  0  0  0  0  0  0  0  0  0  0
    7.7104    1.7167    1.3621 H   0  0  0  0  0  0  0  0  0  0  0  0
  1  2  1  0
  2  3  1  0
  3  4  1  0
  4  5  1  0
  5  6  2  0
  5  7  1  0
  7  8  1  0
  8  9  1  0
  9 10  1  0
 10 11  1  0
 11 12  1  0
 12 13  2  0
 12 14  1  0
 14 15  1  0
 15 16  1  0
 14 17  1  0
 17 18  3  0
  9 19  1  0
 19 20  2  0
 19 21  2  0
 19 22  1  0
 22 23  2  0
 23 24  1  0
 24 25  2  0
 25 26  1  0
 26 27  2  0
 27 28  1  0
  3 29  1  0
 29 30  2  0
 29 31  1  0
 31 32  2  0
 31 33  1  0
 33 34  1  0
 34 35  1  0
 35 36  1  0
 11  7  1  0
 16 14  1  0
 27 22  1  0
 36 34  1  0
  1 37  1  0
  1 38  1  0
  1 39  1  0
  2 40  1  0
  2 41  1  0
  3 42  1  6
  4 43  1  0
  7 44  1  1
  8 45  1  0
  8 46  1  0
  9 47  1  6
 10 48  1  0
 10 49  1  0
 15 50  1  0
 15 51  1  0
 16 52  1  0
 16 53  1  0
 23 54  1  0
 24 55  1  0
 25 56  1  0
 26 57  1  0
 33 58  1  0
 34 59  1  0
 35 60  1  0
 35 61  1  0
 36 62  1  0
 36 63  1  0
M  END
$$$$
[H]O[C@]([H])(C([H])([H])[H])[C@@]([H])(C(=O)N([H])S(=O)(=O)c1c([H])c([H])c([H])c(-c2nc(C([H])([H])[H])nc(N([H])[H])c2[H])c1[H])N([H])[H]
     RDKit          3D

 44 45  0  0  0  0  0  0  0  0999 V2000
    6.4288    0.4367   -0.8791 C   0  0  0  0  0  0  0  0  0  0  0  0
    5.3494    0.5076    0.1797 C   0  0  1  0  0  0  0  0  0  0  0  0
    4.5787    1.6355   -0.0554 O   0  0  0  0  0  0  0  0  0  0  0  0
    4.5468   -0.7718    0.1130 C   0  0  2  0  0  0  0  0  0  0  0  0
    3.9480   -0.9374   -1.1730 N   0  0  0  0  0  0  0  0  0  0  0  0
    3.5657   -0.8742    1.2228 C   0  0  0  0  0  0  0  0  0  0  0  0
    3.8970   -0.7278    2.4287 O   0  0  0  0  0  0  0  0  0  0  0  0
    2.2159   -1.1417    0.9547 N   0  0  0  0  0  0  0  0  0  0  0  0
    1.0109   -1.2731    2.1882 S   0  0  0  0  0  0  0  0  0  0  0  0
    1.5362   -0.9441    3.5424 O   0  0  0  0  0  0  0  0  0  0  0  0
    0.3477   -2.6192    2.1173 O   0  0  0  0  0  0  0  0  0  0  0  0
   -0.2301   -0.0812    1.7886 C   0  0  0  0  0  0  0  0  0  0  0  0
   -0.1224    1.2110    2.2473 C   0  0  0  0  0  0  0  0  0  0  0  0
   -1.0852    2.1679    1.9441 C   0  0  0  0  0  0  0  0  0  0  0  0
   -2.1444    1.7561    1.1663 C   0  0  0  0  0  0  0  0  0  0  0  0
   -2.2872    0.4618    0.6859 C   0  0  0  0  0  0  0  0  0  0  0  0
   -1.3283   -0.4406    1.0032 C   0  0  0  0  0  0  0  0  0  0  0  0
   -3.4483    0.1251   -0.1350 C   0  0  0  0  0  0  0  0  0  0  0  0
   -3.6619   -1.1425   -0.6272 C   0  0  0  0  0  0  0  0  0  0  0  0
   -4.7812   -1.4326   -1.4042 C   0  0  0  0  0  0  0  0  0  0  0  0
   -5.0334   -2.7341   -1.9273 N   0  0  0  0  0  0  0  0  0  0  0  0
   -5.6337   -0.4205   -1.6470 N   0  0  0  0  0  0  0  0  0  0  0  0
   -5.4625    0.8148   -1.1905 C   0  0  0  0  0  0  0  0  0  0  0  0
   -6.4690    1.8547   -1.5234 C   0  0  0  0  0  0  0  0  0  0  0  0
   -4.3749    1.0643   -0.4441 N   0  0  0  0  0  0  0  0  0  0  0  0
    7.1722    1.2416   -0.6572 H   0  0  0  0  0  0  0  0  0  0  0  0
    6.8937   -0.5699   -0.9560 H   0  0  0  0  0  0  0  0  0  0  0  0
    5.9615    0.7393   -1.8594 H   0  0  0  0  0  0  0  0  0  0  0  0
    5.8289    0.6128    1.1841 H   0  0  0  0  0  0  0  0  0  0  0  0
    5.1281    2.4258    0.1432 H   0  0  0  0  0  0  0  0  0  0  0  0
    5.2684   -1.6116    0.2683 H   0  0  0  0  0  0  0  0  0  0  0  0
    4.2456   -1.8178   -1.6617 H   0  0  0  0  0  0  0  0  0  0  0  0
    4.0469   -0.1037   -1.8051 H   0  0  0  0  0  0  0  0  0  0  0  0
    1.9019   -1.2712   -0.0298 H   0  0  0  0  0  0  0  0  0  0  0  0
    0.7043    1.5457    2.8581 H   0  0  0  0  0  0  0  0  0  0  0  0
   -0.9789    3.1836    2.3171 H   0  0  0  0  0  0  0  0  0  0  0  0
   -2.9240    2.4662    0.9019 H   0  0  0  0  0  0  0  0  0  0  0  0
   -1.3670   -1.4694    0.6669 H   0  0  0  0  0  0  0  0  0  0  0  0
   -2.9760   -1.9492   -0.4305 H   0  0  0  0  0  0  0  0  0  0  0  0
   -5.8848   -3.2293   -1.5801 H   0  0  0  0  0  0  0  0  0  0  0  0
   -4.3909   -3.1446   -2.6138 H   0  0  0  0  0  0  0  0  0  0  0  0
   -6.9183    2.1875   -0.5513 H   0  0  0  0  0  0  0  0  0  0  0  0
   -5.8788    2.7474   -1.8690 H   0  0  0  0  0  0  0  0  0  0  0  0
   -7.1957    1.5219   -2.2646 H   0  0  0  0  0  0  0  0  0  0  0  0
  1  2  1  0
  2  3  1  0
  2  4  1  0
  4  5  1  0
  4  6  1  0
  6  7  2  0
  6  8  1  0
  8  9  1  0
  9 10  2  0
  9 11  2  0
  9 12  1  0
 12 13  2  0
 13 14  1  0
 14 15  2  0
 15 16  1  0
 16 17  2  0
 16 18  1  0
 18 19  2  0
 19 20  1  0
 20 21  1  0
 20 22  2  0
 22 23  1  0
 23 24  1  0
 23 25  2  0
 17 12  1  0
 25 18  1  0
  1 26  1  0
  1 27  1  0
  1 28  1  0
  2 29  1  1
  3 30  1  0
  4 31  1  1
  5 32  1  0
  5 33  1  0
  8 34  1  0
 13 35  1  0
 14 36  1  0
 15 37  1  0
 17 38  1  0
 19 39  1  0
 21 40  1  0
 21 41  1  0
 24 42  1  0
 24 43  1  0
 24 44  1  0
M  END
$$$$
[H]c1nc(N([H])[H])c(C(=O)N([H])c2nc([H])c([H])c([H])c2N2C([H])([H])C([H])([H])C(N([H])[H])(C([H])([H])[H])C([H])([H])C2([H])[H])nc1-c1nc([H])c([H])c([H])c1C(F)(F)F
     RDKit          3D

 57 60  0  0  0  0  0  0  0  0999 V2000
   -6.8968    0.1377   -0.2171 C   0  0  0  0  0  0  0  0  0  0  0  0
   -5.4302    0.4598   -0.4076 C   0  0  0  0  0  0  0  0  0  0  0  0
   -5.2798    1.3149   -1.5689 N   0  0  0  0  0  0  0  0  0  0  0  0
   -4.6203   -0.7873   -0.6087 C   0  0  0  0  0  0  0  0  0  0  0  0
   -3.5849   -1.0134    0.4528 C   0  0  0  0  0  0  0  0  0  0  0  0
   -2.8933    0.1423    0.9070 N   0  0  0  0  0  0  0  0  0  0  0  0
   -3.5026    1.4488    0.7093 C   0  0  0  0  0  0  0  0  0  0  0  0
   -4.9896    1.2581    0.7974 C   0  0  0  0  0  0  0  0  0  0  0  0
   -1.6449    0.0557    1.5347 C   0  0  0  0  0  0  0  0  0  0  0  0
   -1.5564    0.1069    2.9069 C   0  0  0  0  0  0  0  0  0  0  0  0
   -0.3215   -0.0314    3.4873 C   0  0  0  0  0  0  0  0  0  0  0  0
    0.8195   -0.2190    2.7172 C   0  0  0  0  0  0  0  0  0  0  0  0
    0.6938   -0.2621    1.3876 N   0  0  0  0  0  0  0  0  0  0  0  0
   -0.4839   -0.1328    0.7645 C   0  0  0  0  0  0  0  0  0  0  0  0
   -0.5519   -0.1785   -0.6292 N   0  0  0  0  0  0  0  0  0  0  0  0
    0.3255   -0.3284   -1.6765 C   0  0  0  0  0  0  0  0  0  0  0  0
   -0.3287   -0.3677   -2.8490 O   0  0  0  0  0  0  0  0  0  0  0  0
    1.7425   -0.4556   -1.8619 C   0  0  0  0  0  0  0  0  0  0  0  0
    2.6639   -0.3025   -0.9307 N   0  0  0  0  0  0  0  0  0  0  0  0
    4.0224   -0.3736   -1.0933 C   0  0  0  0  0  0  0  0  0  0  0  0
    4.4473   -0.6274   -2.3522 C   0  0  0  0  0  0  0  0  0  0  0  0
    3.5341   -0.7964   -3.3597 N   0  0  0  0  0  0  0  0  0  0  0  0
    2.2378   -0.7199   -3.1554 C   0  0  0  0  0  0  0  0  0  0  0  0
    1.2931   -0.9073   -4.2137 N   0  0  0  0  0  0  0  0  0  0  0  0
    4.8534   -0.0388    0.0399 C   0  0  0  0  0  0  0  0  0  0  0  0
    4.1229    0.3760    1.1335 N   0  0  0  0  0  0  0  0  0  0  0  0
    4.5985    0.7066    2.3005 C   0  0  0  0  0  0  0  0  0  0  0  0
    5.9716    0.6408    2.4779 C   0  0  0  0  0  0  0  0  0  0  0  0
    6.7537    0.2344    1.4350 C   0  0  0  0  0  0  0  0  0  0  0  0
    6.1987   -0.1208    0.1799 C   0  0  0  0  0  0  0  0  0  0  0  0
    7.0916   -0.6669   -0.8377 C   0  0  0  0  0  0  0  0  0  0  0  0
    6.8344   -1.9982   -1.1919 F   0  0  0  0  0  0  0  0  0  0  0  0
    8.3152   -0.9327   -0.0792 F   0  0  0  0  0  0  0  0  0  0  0  0
    7.5736    0.1576   -1.7868 F   0  0  0  0  0  0  0  0  0  0  0  0
   -7.2893    0.5091    0.7543 H   0  0  0  0  0  0  0  0  0  0  0  0
   -7.4788    0.5324   -1.0765 H   0  0  0  0  0  0  0  0  0  0  0  0
   -6.9959   -0.9685   -0.2163 H   0  0  0  0  0  0  0  0  0  0  0  0
   -4.3042    1.2503   -1.9349 H   0  0  0  0  0  0  0  0  0  0  0  0
   -5.4571    2.3190   -1.3580 H   0  0  0  0  0  0  0  0  0  0  0  0
   -4.1519   -0.7947   -1.6149 H   0  0  0  0  0  0  0  0  0  0  0  0
   -5.3124   -1.6554   -0.5795 H   0  0  0  0  0  0  0  0  0  0  0  0
   -4.0781   -1.5140    1.3417 H   0  0  0  0  0  0  0  0  0  0  0  0
   -2.8593   -1.7635    0.0978 H   0  0  0  0  0  0  0  0  0  0  0  0
   -3.2203    1.7887   -0.2913 H   0  0  0  0  0  0  0  0  0  0  0  0
   -3.1530    2.1501    1.5009 H   0  0  0  0  0  0  0  0  0  0  0  0
   -5.5341    2.2365    0.7398 H   0  0  0  0  0  0  0  0  0  0  0  0
   -5.3081    0.7686    1.7210 H   0  0  0  0  0  0  0  0  0  0  0  0
   -2.4268    0.2524    3.5418 H   0  0  0  0  0  0  0  0  0  0  0  0
   -0.2313    0.0061    4.5705 H   0  0  0  0  0  0  0  0  0  0  0  0
    1.7805   -0.3253    3.2314 H   0  0  0  0  0  0  0  0  0  0  0  0
   -1.6006   -0.1098   -0.9816 H   0  0  0  0  0  0  0  0  0  0  0  0
    5.4612   -0.6661   -2.6761 H   0  0  0  0  0  0  0  0  0  0  0  0
    1.0678   -0.0698   -4.8183 H   0  0  0  0  0  0  0  0  0  0  0  0
    0.8302   -1.8242   -4.4113 H   0  0  0  0  0  0  0  0  0  0  0  0
    3.9938    1.0277    3.1326 H   0  0  0  0  0  0  0  0  0  0  0  0
    6.4309    0.8983    3.4035 H   0  0  0  0  0  0  0  0  0  0  0  0
    7.8282    0.1731    1.5119 H   0  0  0  0  0  0  0  0  0  0  0  0
  1  2  1  0
  2  3  1  0
  2  4  1  0
  4  5  1  0
  5  6  1  0
  6  7  1  0
  7  8  1  0
  6  9  1  0
  9 10  2  0
 10 11  1  0
 11 12  2  0
 12 13  1  0
 13 14  2  0
 14 15  1  0
 15 16  1  0
 16 17  2  0
 16 18  1  0
 18 19  2  0
 19 20  1  0
 20 21  2  0
 21 22  1  0
 22 23  2  0
 23 24  1  0
 20 25  1  0
 25 26  2  0
 26 27  1  0
 27 28  2  0
 28 29  1  0
 29 30  2  0
 30 31  1  0
 31 32  1  0
 31 33  1  0
 31 34  1  0
  8  2  1  0
 14  9  1  0
 23 18  1  0
 30 25  1  0
  1 35  1  0
  1 36  1  0
  1 37  1  0
  3 38  1  0
  3 39  1  0
  4 40  1  0
  4 41  1  0
  5 42  1  0
  5 43  1  0
  7 44  1  0
  7 45  1  0
  8 46  1  0
  8 47  1  0
 10 48  1  0
 11 49  1  0
 12 50  1  0
 15 51  1  0
 21 52  1  0
 24 53  1  0
 24 54  1  0
 27 55  1  0
 28 56  1  0
 29 57  1  0
M  END
$$$$
[H]c1nc(N2C([H])([H])[C@@]3([H])N(C([H])([H])[H])C([H])([H])[C@]2([H])C3([H])[H])c([H])nc1-c1c([H])c([H])c([H])c([H])c1[H]
     RDKit          3D

 38 41  0  0  0  0  0  0  0  0999 V2000
   -5.6813   -0.2374    0.5568 C   0  0  0  0  0  0  0  0  0  0  0  0
   -4.3397   -0.8117    0.6072 N   0  0  0  0  0  0  0  0  0  0  0  0
   -3.4816    0.1925    1.2502 C   0  0  0  0  0  0  0  0  0  0  0  0
   -2.6041    0.7513    0.1496 C   0  0  2  0  0  0  0  0  0  0  0  0
   -3.5636    0.5585   -1.0421 C   0  0  0  0  0  0  0  0  0  0  0  0
   -3.8078   -0.9295   -0.7260 C   0  0  1  0  0  0  0  0  0  0  0  0
   -2.3780   -1.4062   -0.6235 C   0  0  0  0  0  0  0  0  0  0  0  0
   -1.6317   -0.2502   -0.1599 N   0  0  0  0  0  0  0  0  0  0  0  0
   -0.2279   -0.0923   -0.0228 C   0  0  0  0  0  0  0  0  0  0  0  0
    0.6340   -1.1192   -0.3477 C   0  0  0  0  0  0  0  0  0  0  0  0
    1.9607   -0.9513   -0.2115 N   0  0  0  0  0  0  0  0  0  0  0  0
    2.5242    0.1878    0.2350 C   0  0  0  0  0  0  0  0  0  0  0  0
    1.6645    1.2111    0.5587 C   0  0  0  0  0  0  0  0  0  0  0  0
    0.3214    1.0484    0.4235 N   0  0  0  0  0  0  0  0  0  0  0  0
    3.9774    0.2635    0.3448 C   0  0  0  0  0  0  0  0  0  0  0  0
    4.6343    1.3868    0.7908 C   0  0  0  0  0  0  0  0  0  0  0  0
    6.0312    1.4239    0.8834 C   0  0  0  0  0  0  0  0  0  0  0  0
    6.7928    0.3325    0.5293 C   0  0  0  0  0  0  0  0  0  0  0  0
    6.1417   -0.7918    0.0833 C   0  0  0  0  0  0  0  0  0  0  0  0
    4.7671   -0.8173   -0.0038 C   0  0  0  0  0  0  0  0  0  0  0  0
   -5.6707    0.8598    0.7216 H   0  0  0  0  0  0  0  0  0  0  0  0
   -6.1575   -0.4127   -0.4299 H   0  0  0  0  0  0  0  0  0  0  0  0
   -6.2922   -0.6599    1.3993 H   0  0  0  0  0  0  0  0  0  0  0  0
   -4.0582    0.9551    1.7810 H   0  0  0  0  0  0  0  0  0  0  0  0
   -2.8096   -0.3869    1.9210 H   0  0  0  0  0  0  0  0  0  0  0  0
   -2.2690    1.7536    0.2780 H   0  0  0  0  0  0  0  0  0  0  0  0
   -4.4856    1.1250   -0.9175 H   0  0  0  0  0  0  0  0  0  0  0  0
   -3.0440    0.6854   -1.9914 H   0  0  0  0  0  0  0  0  0  0  0  0
   -4.4187   -1.4262   -1.4447 H   0  0  0  0  0  0  0  0  0  0  0  0
   -2.3706   -2.1652    0.2128 H   0  0  0  0  0  0  0  0  0  0  0  0
   -1.9887   -1.8387   -1.5435 H   0  0  0  0  0  0  0  0  0  0  0  0
    0.2409   -2.0788   -0.7191 H   0  0  0  0  0  0  0  0  0  0  0  0
    2.0874    2.1378    0.9199 H   0  0  0  0  0  0  0  0  0  0  0  0
    4.0984    2.2630    1.0793 H   0  0  0  0  0  0  0  0  0  0  0  0
    6.5538    2.3038    1.2331 H   0  0  0  0  0  0  0  0  0  0  0  0
    7.8707    0.3214    0.5863 H   0  0  0  0  0  0  0  0  0  0  0  0
    6.7289   -1.6711   -0.2035 H   0  0  0  0  0  0  0  0  0  0  0  0
    4.2510   -1.7148   -0.3596 H   0  0  0  0  0  0  0  0  0  0  0  0
  1  2  1  0
  2  3  1  0
  3  4  1  0
  4  5  1  0
  5  6  1  0
  6  7  1  0
  7  8  1  0
  8  9  1  0
  9 10  2  0
 10 11  1  0
 11 12  2  0
 12 13  1  0
 13 14  2  0
 12 15  1  0
 15 16  2  0
 16 17  1  0
 17 18  2  0
 18 19  1  0
 19 20  2  0
  6  2  1  0
 14  9  1  0
 20 15  1  0
  8  4  1  0
  1 21  1  0
  1 22  1  0
  1 23  1  0
  3 24  1  0
  3 25  1  0
  4 26  1  1
  5 27  1  0
  5 28  1  0
  6 29  1  6
  7 30  1  0
  7 31  1  0
 10 32  1  0
 13 33  1  0
 16 34  1  0
 17 35  1  0
 18 36  1  0
 19 37  1  0
 20 38  1  0
M  END
$$$$
[H]ON([H])C(=O)C([H])([H])C([H])([H])C([H])([H])C([H])([H])C([H])([H])C([H])([H])C(=O)N([H])c1c([H])c([H])c([H])c(-c2nnn(C([H])([H])c3c([H])c([H])c([H])c([H])c3[H])c2[H])c1[H]
     RDKit          3D

 58 60  0  0  0  0  0  0  0  0999 V2000
  -11.8306   -0.4135   -0.7936 O   0  0  0  0  0  0  0  0  0  0  0  0
  -10.7990   -0.9174   -0.0993 N   0  0  0  0  0  0  0  0  0  0  0  0
   -9.4710   -0.5798   -0.5022 C   0  0  0  0  0  0  0  0  0  0  0  0
   -9.3569    0.1815   -1.4993 O   0  0  0  0  0  0  0  0  0  0  0  0
   -8.3148   -1.1222    0.2463 C   0  0  0  0  0  0  0  0  0  0  0  0
   -6.9800   -0.6033   -0.1983 C   0  0  0  0  0  0  0  0  0  0  0  0
   -6.8223    0.8760   -0.0196 C   0  0  0  0  0  0  0  0  0  0  0  0
   -5.4745    1.3526   -0.5012 C   0  0  0  0  0  0  0  0  0  0  0  0
   -4.3497    0.7186    0.2348 C   0  0  0  0  0  0  0  0  0  0  0  0
   -2.9987    1.2148   -0.2377 C   0  0  0  0  0  0  0  0  0  0  0  0
   -1.9506    0.4988    0.5835 C   0  0  0  0  0  0  0  0  0  0  0  0
   -2.4079   -0.3079    1.4296 O   0  0  0  0  0  0  0  0  0  0  0  0
   -0.6095    0.7857    0.3395 N   0  0  0  0  0  0  0  0  0  0  0  0
    0.5495    0.2725    0.9478 C   0  0  0  0  0  0  0  0  0  0  0  0
    0.4889   -0.6631    1.9361 C   0  0  0  0  0  0  0  0  0  0  0  0
    1.6804   -1.1470    2.5173 C   0  0  0  0  0  0  0  0  0  0  0  0
    2.8798   -0.6653    2.0753 C   0  0  0  0  0  0  0  0  0  0  0  0
    2.9795    0.2807    1.0782 C   0  0  0  0  0  0  0  0  0  0  0  0
    1.8111    0.7306    0.5343 C   0  0  0  0  0  0  0  0  0  0  0  0
    4.2939    0.7455    0.6619 C   0  0  0  0  0  0  0  0  0  0  0  0
    5.5315    0.3972    1.1065 C   0  0  0  0  0  0  0  0  0  0  0  0
    6.4501    1.0974    0.4171 N   0  0  0  0  0  0  0  0  0  0  0  0
    7.8936    1.0702    0.5325 C   0  0  0  0  0  0  0  0  0  0  0  0
    8.5086    0.0698   -0.3554 C   0  0  0  0  0  0  0  0  0  0  0  0
    8.8866    0.4009   -1.6299 C   0  0  0  0  0  0  0  0  0  0  0  0
    9.4709   -0.5642   -2.4602 C   0  0  0  0  0  0  0  0  0  0  0  0
    9.6772   -1.8561   -2.0191 C   0  0  0  0  0  0  0  0  0  0  0  0
    9.2963   -2.1807   -0.7419 C   0  0  0  0  0  0  0  0  0  0  0  0
    8.7118   -1.2115    0.0856 C   0  0  0  0  0  0  0  0  0  0  0  0
    5.7887    1.8498   -0.4226 N   0  0  0  0  0  0  0  0  0  0  0  0
    4.4970    1.6771   -0.3165 N   0  0  0  0  0  0  0  0  0  0  0  0
  -12.6842   -0.4052   -0.2843 H   0  0  0  0  0  0  0  0  0  0  0  0
  -10.9120   -1.5481    0.7260 H   0  0  0  0  0  0  0  0  0  0  0  0
   -8.3463   -2.2397    0.1627 H   0  0  0  0  0  0  0  0  0  0  0  0
   -8.4778   -0.8783    1.3367 H   0  0  0  0  0  0  0  0  0  0  0  0
   -6.7784   -0.9216   -1.2463 H   0  0  0  0  0  0  0  0  0  0  0  0
   -6.2113   -1.1270    0.4385 H   0  0  0  0  0  0  0  0  0  0  0  0
   -6.8271    1.0805    1.0958 H   0  0  0  0  0  0  0  0  0  0  0  0
   -7.6436    1.4644   -0.4849 H   0  0  0  0  0  0  0  0  0  0  0  0
   -5.4244    2.4724   -0.4259 H   0  0  0  0  0  0  0  0  0  0  0  0
   -5.3892    1.1018   -1.5882 H   0  0  0  0  0  0  0  0  0  0  0  0
   -4.4357    0.9256    1.3206 H   0  0  0  0  0  0  0  0  0  0  0  0
   -4.4145   -0.3920    0.1352 H   0  0  0  0  0  0  0  0  0  0  0  0
   -2.8873    2.2974   -0.1183 H   0  0  0  0  0  0  0  0  0  0  0  0
   -2.8028    0.8892   -1.2852 H   0  0  0  0  0  0  0  0  0  0  0  0
   -0.4415    1.5157   -0.4383 H   0  0  0  0  0  0  0  0  0  0  0  0
   -0.4328   -1.0810    2.3257 H   0  0  0  0  0  0  0  0  0  0  0  0
    1.6406   -1.8899    3.3025 H   0  0  0  0  0  0  0  0  0  0  0  0
    3.7903   -1.0538    2.5394 H   0  0  0  0  0  0  0  0  0  0  0  0
    1.8954    1.4790   -0.2543 H   0  0  0  0  0  0  0  0  0  0  0  0
    5.7524   -0.3115    1.8731 H   0  0  0  0  0  0  0  0  0  0  0  0
    8.2557    2.1062    0.2772 H   0  0  0  0  0  0  0  0  0  0  0  0
    8.1872    0.8286    1.5936 H   0  0  0  0  0  0  0  0  0  0  0  0
    8.7605    1.3894   -2.0531 H   0  0  0  0  0  0  0  0  0  0  0  0
    9.7808   -0.3326   -3.4742 H   0  0  0  0  0  0  0  0  0  0  0  0
   10.1293   -2.6210   -2.6474 H   0  0  0  0  0  0  0  0  0  0  0  0
    9.4488   -3.1904   -0.3739 H   0  0  0  0  0  0  0  0  0  0  0  0
    8.4379   -1.5457    1.0817 H   0  0  0  0  0  0  0  0  0  0  0  0
  1  2  1  0
  2  3  1  0
  3  4  2  0
  3  5  1  0
  5  6  1  0
  6  7  1  0
  7  8  1  0
  8  9  1  0
  9 10  1  0
 10 11  1  0
 11 12  2  0
 11 13  1  0
 13 14  1  0
 14 15  2  0
 15 16  1  0
 16 17  2  0
 17 18  1  0
 18 19  2  0
 18 20  1  0
 20 21  2  0
 21 22  1  0
 22 23  1  0
 23 24  1  0
 24 25  2  0
 25 26  1  0
 26 27  2  0
 27 28  1  0
 28 29  2  0
 22 30  1  0
 30 31  2  0
 19 14  1  0
 31 20  1  0
 29 24  1  0
  1 32  1  0
  2 33  1  0
  5 34  1  0
  5 35  1  0
  6 36  1  0
  6 37  1  0
  7 38  1  0
  7 39  1  0
  8 40  1  0
  8 41  1  0
  9 42  1  0
  9 43  1  0
 10 44  1  0
 10 45  1  0
 13 46  1  0
 15 47  1  0
 16 48  1  0
 17 49  1  0
 19 50  1  0
 21 51  1  0
 23 52  1  0
 23 53  1  0
 25 54  1  0
 26 55  1  0
 27 56  1  0
 28 57  1  0
 29 58  1  0
M  END
$$$$
[H]N=C(N([H])[H])N([H])C([H])([H])C([H])([H])C([H])([H])[C@@]([H])(C(=O)N([H])[C@]([H])(C(=O)O[H])C([H])([H])c1c([H])c([H])c([H])c([H])c1[H])N([H])C(=O)[C@@]([H])(N([H])C(=O)[C@@]([H])(N([H])C(=O)[C@@]([H])(N([H])C(=O)[C@@]([H])(N([H])C(=O)C([H])([H])[H])C([H])([H])C([H])([H])C([H])([H])N([H])C(=N[H])N([H])[H])C([H])([H])C([H])([H])C([H])([H])N([H])C(=N[H])N([H])[H])C([H])([H])C([H])([H])C([H])([H])N([H])C(=N[H])N([H])[H])C([H])([H])C([H])([H])C([H])([H])N([H])C(=N[H])N([H])[H]
     RDKit          2D

143143  0  0  0  0  0  0  0  0999 V2000
   19.6471  -15.1471    0.0000 C   0  0  0  0  0  0  0  0  0  0  0  0
   18.1471  -15.1471    0.0000 C   0  0  0  0  0  0  0  0  0  0  0  0
   17.7199  -16.1537    0.0000 O   0  0  0  0  0  0  0  0  0  0  0  0
   17.3971  -13.8481    0.0000 N   0  0  0  0  0  0  0  0  0  0  0  0
   15.8971  -13.8481    0.0000 C   0  0  0  0  0  0  0  0  0  0  0  0
   15.8971  -15.3481    0.0000 C   0  0  0  0  0  0  0  0  0  0  0  0
   15.8971  -16.8481    0.0000 C   0  0  0  0  0  0  0  0  0  0  0  0
   15.8971  -18.3481    0.0000 C   0  0  0  0  0  0  0  0  0  0  0  0
   15.8971  -19.8481    0.0000 N   0  0  0  0  0  0  0  0  0  0  0  0
   17.1962  -20.5981    0.0000 C   0  0  0  0  0  0  0  0  0  0  0  0
   18.4952  -19.8481    0.0000 N   0  0  0  0  0  0  0  0  0  0  0  0
   17.1962  -22.0981    0.0000 N   0  0  0  0  0  0  0  0  0  0  0  0
   15.8971  -12.3481    0.0000 C   0  0  0  0  0  0  0  0  0  0  0  0
   16.9037  -11.9208    0.0000 O   0  0  0  0  0  0  0  0  0  0  0  0
   14.5981  -11.5981    0.0000 N   0  0  0  0  0  0  0  0  0  0  0  0
   14.5981  -10.0981    0.0000 C   0  0  0  0  0  0  0  0  0  0  0  0
   16.0981  -10.0981    0.0000 C   0  0  0  0  0  0  0  0  0  0  0  0
   17.5981  -10.0981    0.0000 C   0  0  0  0  0  0  0  0  0  0  0  0
   19.0981  -10.0981    0.0000 C   0  0  0  0  0  0  0  0  0  0  0  0
   20.5981  -10.0981    0.0000 N   0  0  0  0  0  0  0  0  0  0  0  0
   21.3481  -11.3971    0.0000 C   0  0  0  0  0  0  0  0  0  0  0  0
   20.5981  -12.6962    0.0000 N   0  0  0  0  0  0  0  0  0  0  0  0
   22.8481  -11.3971    0.0000 N   0  0  0  0  0  0  0  0  0  0  0  0
   13.0981  -10.0981    0.0000 C   0  0  0  0  0  0  0  0  0  0  0  0
   12.6708  -11.1047    0.0000 O   0  0  0  0  0  0  0  0  0  0  0  0
   12.3481   -8.7990    0.0000 N   0  0  0  0  0  0  0  0  0  0  0  0
   10.8481   -8.7990    0.0000 C   0  0  0  0  0  0  0  0  0  0  0  0
   10.8481  -10.2990    0.0000 C   0  0  0  0  0  0  0  0  0  0  0  0
   10.8481  -11.7990    0.0000 C   0  0  0  0  0  0  0  0  0  0  0  0
   10.8481  -13.2990    0.0000 C   0  0  0  0  0  0  0  0  0  0  0  0
   10.8481  -14.7990    0.0000 N   0  0  0  0  0  0  0  0  0  0  0  0
   12.1471  -15.5490    0.0000 C   0  0  0  0  0  0  0  0  0  0  0  0
   13.4462  -14.7990    0.0000 N   0  0  0  0  0  0  0  0  0  0  0  0
   12.1471  -17.0490    0.0000 N   0  0  0  0  0  0  0  0  0  0  0  0
   10.8481   -7.2990    0.0000 C   0  0  0  0  0  0  0  0  0  0  0  0
   12.2288   -6.7130    0.0000 O   0  0  0  0  0  0  0  0  0  0  0  0
    9.5490   -6.5490    0.0000 N   0  0  0  0  0  0  0  0  0  0  0  0
    9.5490   -5.0490    0.0000 C   0  0  0  0  0  0  0  0  0  0  0  0
   11.0490   -5.0490    0.0000 C   0  0  0  0  0  0  0  0  0  0  0  0
   12.5490   -5.0490    0.0000 C   0  0  0  0  0  0  0  0  0  0  0  0
   14.0490   -5.0490    0.0000 C   0  0  0  0  0  0  0  0  0  0  0  0
   15.5490   -5.0490    0.0000 N   0  0  0  0  0  0  0  0  0  0  0  0
   16.2990   -6.3481    0.0000 C   0  0  0  0  0  0  0  0  0  0  0  0
   15.5490   -7.6471    0.0000 N   0  0  0  0  0  0  0  0  0  0  0  0
   17.7990   -6.3481    0.0000 N   0  0  0  0  0  0  0  0  0  0  0  0
    8.0490   -5.0490    0.0000 C   0  0  0  0  0  0  0  0  0  0  0  0
    7.4630   -6.4298    0.0000 O   0  0  0  0  0  0  0  0  0  0  0  0
    7.2990   -3.7500    0.0000 N   0  0  0  0  0  0  0  0  0  0  0  0
    5.7990   -3.7500    0.0000 C   0  0  0  0  0  0  0  0  0  0  0  0
    5.7990   -5.2500    0.0000 C   0  0  0  0  0  0  0  0  0  0  0  0
    5.7990   -6.7500    0.0000 C   0  0  0  0  0  0  0  0  0  0  0  0
    5.7990   -8.2500    0.0000 C   0  0  0  0  0  0  0  0  0  0  0  0
    5.7990   -9.7500    0.0000 N   0  0  0  0  0  0  0  0  0  0  0  0
    7.0981  -10.5000    0.0000 C   0  0  0  0  0  0  0  0  0  0  0  0
    8.3971   -9.7500    0.0000 N   0  0  0  0  0  0  0  0  0  0  0  0
    7.0981  -12.0000    0.0000 N   0  0  0  0  0  0  0  0  0  0  0  0
    5.7990   -2.2500    0.0000 C   0  0  0  0  0  0  0  0  0  0  0  0
    6.8056   -1.8228    0.0000 O   0  0  0  0  0  0  0  0  0  0  0  0
    4.5000   -1.5000    0.0000 N   0  0  0  0  0  0  0  0  0  0  0  0
    4.5000    0.0000    0.0000 C   0  0  0  0  0  0  0  0  0  0  0  0
    3.0000   -0.0000    0.0000 C   0  0  0  0  0  0  0  0  0  0  0  0
    1.5000    0.0000    0.0000 C   0  0  0  0  0  0  0  0  0  0  0  0
    0.7500   -1.2990    0.0000 C   0  0  0  0  0  0  0  0  0  0  0  0
   -0.7500   -1.2990    0.0000 C   0  0  0  0  0  0  0  0  0  0  0  0
   -1.5000    0.0000    0.0000 C   0  0  0  0  0  0  0  0  0  0  0  0
   -0.7500    1.2990    0.0000 C   0  0  0  0  0  0  0  0  0  0  0  0
    0.7500    1.2990    0.0000 C   0  0  0  0  0  0  0  0  0  0  0  0
    6.0000   -0.0000    0.0000 C   0  0  0  0  0  0  0  0  0  0  0  0
    6.7500    1.2990    0.0000 O   0  0  0  0  0  0  0  0  0  0  0  0
    6.6581   -0.8733    0.0000 O   0  0  0  0  0  0  0  0  0  0  0  0
   21.1471  -15.1471    0.0000 H   0  0  0  0  0  0  0  0  0  0  0  0
   19.6471  -16.6471    0.0000 H   0  0  0  0  0  0  0  0  0  0  0  0
   19.6471  -13.6471    0.0000 H   0  0  0  0  0  0  0  0  0  0  0  0
   18.1471  -12.5490    0.0000 H   0  0  0  0  0  0  0  0  0  0  0  0
   14.3971  -13.8481    0.0000 H   0  0  0  0  0  0  0  0  0  0  0  0
   16.9581  -15.6127    0.0000 H   0  0  0  0  0  0  0  0  0  0  0  0
   14.8118  -15.4814    0.0000 H   0  0  0  0  0  0  0  0  0  0  0  0
   17.3859  -17.0309    0.0000 H   0  0  0  0  0  0  0  0  0  0  0  0
   14.3971  -16.8481    0.0000 H   0  0  0  0  0  0  0  0  0  0  0  0
   14.3971  -18.3481    0.0000 H   0  0  0  0  0  0  0  0  0  0  0  0
   17.3971  -18.3481    0.0000 H   0  0  0  0  0  0  0  0  0  0  0  0
   14.5981  -20.5981    0.0000 H   0  0  0  0  0  0  0  0  0  0  0  0
   19.7942  -20.5981    0.0000 H   0  0  0  0  0  0  0  0  0  0  0  0
   18.4952  -18.3481    0.0000 H   0  0  0  0  0  0  0  0  0  0  0  0
   18.4952  -22.8481    0.0000 H   0  0  0  0  0  0  0  0  0  0  0  0
   13.2990  -12.3481    0.0000 H   0  0  0  0  0  0  0  0  0  0  0  0
   14.5981   -8.5981    0.0000 H   0  0  0  0  0  0  0  0  0  0  0  0
   16.3627  -11.1591    0.0000 H   0  0  0  0  0  0  0  0  0  0  0  0
   16.2809   -8.6093    0.0000 H   0  0  0  0  0  0  0  0  0  0  0  0
   17.7809  -11.5869    0.0000 H   0  0  0  0  0  0  0  0  0  0  0  0
   17.5981   -8.5981    0.0000 H   0  0  0  0  0  0  0  0  0  0  0  0
   19.0981   -8.5981    0.0000 H   0  0  0  0  0  0  0  0  0  0  0  0
   19.0981  -11.5981    0.0000 H   0  0  0  0  0  0  0  0  0  0  0  0
   21.3481   -8.7990    0.0000 H   0  0  0  0  0  0  0  0  0  0  0  0
   21.3481  -13.9952    0.0000 H   0  0  0  0  0  0  0  0  0  0  0  0
   19.0981  -12.6962    0.0000 H   0  0  0  0  0  0  0  0  0  0  0  0
   23.5981  -12.6962    0.0000 H   0  0  0  0  0  0  0  0  0  0  0  0
   13.0981   -7.5000    0.0000 H   0  0  0  0  0  0  0  0  0  0  0  0
    9.3481   -8.7990    0.0000 H   0  0  0  0  0  0  0  0  0  0  0  0
   11.9091  -10.5636    0.0000 H   0  0  0  0  0  0  0  0  0  0  0  0
    9.3593  -10.4819    0.0000 H   0  0  0  0  0  0  0  0  0  0  0  0
   12.3369  -11.9819    0.0000 H   0  0  0  0  0  0  0  0  0  0  0  0
    9.3481  -11.7990    0.0000 H   0  0  0  0  0  0  0  0  0  0  0  0
    9.3481  -13.2990    0.0000 H   0  0  0  0  0  0  0  0  0  0  0  0
   12.3481  -13.2990    0.0000 H   0  0  0  0  0  0  0  0  0  0  0  0
    9.5490  -15.5490    0.0000 H   0  0  0  0  0  0  0  0  0  0  0  0
   14.3194  -15.4571    0.0000 H   0  0  0  0  0  0  0  0  0  0  0  0
   13.4462  -13.2990    0.0000 H   0  0  0  0  0  0  0  0  0  0  0  0
   13.4462  -17.7990    0.0000 H   0  0  0  0  0  0  0  0  0  0  0  0
    8.2500   -7.2990    0.0000 H   0  0  0  0  0  0  0  0  0  0  0  0
    9.5490   -3.5490    0.0000 H   0  0  0  0  0  0  0  0  0  0  0  0
   11.0490   -3.5490    0.0000 H   0  0  0  0  0  0  0  0  0  0  0  0
   11.4120   -6.5045    0.0000 H   0  0  0  0  0  0  0  0  0  0  0  0
   12.7319   -6.5379    0.0000 H   0  0  0  0  0  0  0  0  0  0  0  0
   12.5490   -3.5490    0.0000 H   0  0  0  0  0  0  0  0  0  0  0  0
   14.0490   -3.5490    0.0000 H   0  0  0  0  0  0  0  0  0  0  0  0
   14.0490   -6.5490    0.0000 H   0  0  0  0  0  0  0  0  0  0  0  0
   16.2990   -3.7500    0.0000 H   0  0  0  0  0  0  0  0  0  0  0  0
   16.4518   -8.8450    0.0000 H   0  0  0  0  0  0  0  0  0  0  0  0
   14.0490   -7.6471    0.0000 H   0  0  0  0  0  0  0  0  0  0  0  0
   18.5490   -7.6471    0.0000 H   0  0  0  0  0  0  0  0  0  0  0  0
    8.0490   -2.4510    0.0000 H   0  0  0  0  0  0  0  0  0  0  0  0
    4.2990   -3.7500    0.0000 H   0  0  0  0  0  0  0  0  0  0  0  0
    4.2990   -5.2500    0.0000 H   0  0  0  0  0  0  0  0  0  0  0  0
    7.2545   -5.6130    0.0000 H   0  0  0  0  0  0  0  0  0  0  0  0
    4.2990   -6.7500    0.0000 H   0  0  0  0  0  0  0  0  0  0  0  0
    7.2879   -6.9328    0.0000 H   0  0  0  0  0  0  0  0  0  0  0  0
    4.2990   -8.2500    0.0000 H   0  0  0  0  0  0  0  0  0  0  0  0
    7.2990   -8.2500    0.0000 H   0  0  0  0  0  0  0  0  0  0  0  0
    4.5000  -10.5000    0.0000 H   0  0  0  0  0  0  0  0  0  0  0  0
    9.5950  -10.6528    0.0000 H   0  0  0  0  0  0  0  0  0  0  0  0
    8.3971   -8.2500    0.0000 H   0  0  0  0  0  0  0  0  0  0  0  0
    8.3971  -12.7500    0.0000 H   0  0  0  0  0  0  0  0  0  0  0  0
    3.3021   -2.4028    0.0000 H   0  0  0  0  0  0  0  0  0  0  0  0
    4.5000    1.5000    0.0000 H   0  0  0  0  0  0  0  0  0  0  0  0
    2.8172   -1.4888    0.0000 H   0  0  0  0  0  0  0  0  0  0  0  0
    3.0000    1.5000    0.0000 H   0  0  0  0  0  0  0  0  0  0  0  0
    1.5000   -2.5981    0.0000 H   0  0  0  0  0  0  0  0  0  0  0  0
   -1.5000   -2.5981    0.0000 H   0  0  0  0  0  0  0  0  0  0  0  0
   -3.0000    0.0000    0.0000 H   0  0  0  0  0  0  0  0  0  0  0  0
   -1.5000    2.5981    0.0000 H   0  0  0  0  0  0  0  0  0  0  0  0
    1.5000    2.5981    0.0000 H   0  0  0  0  0  0  0  0  0  0  0  0
    8.2500    1.2990    0.0000 H   0  0  0  0  0  0  0  0  0  0  0  0
  1  2  1  0
  2  3  2  0
  2  4  1  0
  4  5  1  0
  5  6  1  0
  6  7  1  0
  7  8  1  0
  8  9  1  0
  9 10  1  0
 10 11  1  0
 10 12  2  3
  5 13  1  0
 13 14  2  0
 13 15  1  0
 15 16  1  0
 16 17  1  0
 17 18  1  0
 18 19  1  0
 19 20  1  0
 20 21  1  0
 21 22  1  0
 21 23  2  3
 16 24  1  0
 24 25  2  0
 24 26  1  0
 26 27  1  0
 27 28  1  0
 28 29  1  0
 29 30  1  0
 30 31  1  0
 31 32  1  0
 32 33  1  0
 32 34  2  3
 27 35  1  0
 35 36  2  0
 35 37  1  0
 37 38  1  0
 38 39  1  0
 39 40  1  0
 40 41  1  0
 41 42  1  0
 42 43  1  0
 43 44  1  0
 43 45  2  3
 38 46  1  0
 46 47  2  0
 46 48  1  0
 48 49  1  0
 49 50  1  0
 50 51  1  0
 51 52  1  0
 52 53  1  0
 53 54  1  0
 54 55  1  0
 54 56  2  3
 49 57  1  0
 57 58  2  0
 57 59  1  0
 59 60  1  0
 60 61  1  0
 61 62  1  0
 62 63  2  0
 63 64  1  0
 64 65  2  0
 65 66  1  0
 66 67  2  0
 60 68  1  0
 68 69  1  0
 68 70  2  0
 67 62  1  0
  1 71  1  0
  1 72  1  0
  1 73  1  0
  4 74  1  0
  5 75  1  6
  6 76  1  0
  6 77  1  0
  7 78  1  0
  7 79  1  0
  8 80  1  0
  8 81  1  0
  9 82  1  0
 11 83  1  0
 11 84  1  0
 12 85  1  0
 15 86  1  0
 16 87  1  1
 17 88  1  0
 17 89  1  0
 18 90  1  0
 18 91  1  0
 19 92  1  0
 19 93  1  0
 20 94  1  0
 22 95  1  0
 22 96  1  0
 23 97  1  0
 26 98  1  0
 27 99  1  6
 28100  1  0
 28101  1  0
 29102  1  0
 29103  1  0
 30104  1  0
 30105  1  0
 31106  1  0
 33107  1  0
 33108  1  0
 34109  1  0
 37110  1  0
 38111  1  1
 39112  1  0
 39113  1  0
 40114  1  0
 40115  1  0
 41116  1  0
 41117  1  0
 42118  1  0
 44119  1  0
 44120  1  0
 45121  1  0
 48122  1  0
 49123  1  6
 50124  1  0
 50125  1  0
 51126  1  0
 51127  1  0
 52128  1  0
 52129  1  0
 53130  1  0
 55131  1  0
 55132  1  0
 56133  1  0
 59134  1  0
 60135  1  6
 61136  1  0
 61137  1  0
 63138  1  0
 64139  1  0
 65140  1  0
 66141  1  0
 67142  1  0
 69143  1  0
M  END
$$$$
[H]OC(=O)[C@@]([H])(N([H])C(=O)[C@@]([H])(N([H])C(=O)[C@@]1([H])N(C(=O)[C@@]([H])(N([H])C(=O)[C@@]([H])(N([H])C(=O)[C@@]([H])(N([H])C(=O)c2c(O[H])c3c([H])c([H])c([H])c([H])c3n2[H])C([H])([H])c2c([H])c([H])c([H])c([H])c2[H])C([H])([H])C([H])(C([H])([H])[H])C([H])([H])[H])C([H])([H])c2c([H])c([H])c([H])c([H])c2[H])C([H])([H])C([H])([H])C1([H])[H])[C@]([H])(O[H])C([H])([H])[H])C([H])([H])c1c([H])c([H])c([H])c([H])c1[H]
     RDKit          3D

127132  0  0  0  0  0  0  0  0999 V2000
   -2.7699    0.9532    3.4337 C   0  0  0  0  0  0  0  0  0  0  0  0
   -3.5616   -0.2746    3.0060 C   0  0  0  0  0  0  0  0  0  0  0  0
   -4.9747   -0.2650    3.4059 C   0  0  0  0  0  0  0  0  0  0  0  0
   -3.1387   -0.7097    1.6698 C   0  0  0  0  0  0  0  0  0  0  0  0
   -3.2270    0.2181    0.5081 C   0  0  2  0  0  0  0  0  0  0  0  0
   -4.4528    0.7146    0.0419 N   0  0  0  0  0  0  0  0  0  0  0  0
   -5.7345    0.1996   -0.1065 C   0  0  0  0  0  0  0  0  0  0  0  0
   -5.9426   -1.0161    0.2382 O   0  0  0  0  0  0  0  0  0  0  0  0
   -6.8925    0.9275   -0.6325 C   0  0  2  0  0  0  0  0  0  0  0  0
   -7.0543    2.3563   -0.3172 C   0  0  0  0  0  0  0  0  0  0  0  0
   -7.1767    2.8044    1.0480 C   0  0  0  0  0  0  0  0  0  0  0  0
   -8.3902    2.7911    1.6905 C   0  0  0  0  0  0  0  0  0  0  0  0
   -8.5796    3.2410    2.9695 C   0  0  0  0  0  0  0  0  0  0  0  0
   -7.5161    3.7414    3.6841 C   0  0  0  0  0  0  0  0  0  0  0  0
   -6.2807    3.7711    3.0728 C   0  0  0  0  0  0  0  0  0  0  0  0
   -6.1135    3.3066    1.7672 C   0  0  0  0  0  0  0  0  0  0  0  0
   -8.0975    0.1505   -0.5317 N   0  0  0  0  0  0  0  0  0  0  0  0
   -8.8607   -0.3015   -1.6309 C   0  0  0  0  0  0  0  0  0  0  0  0
   -8.4885   -0.0251   -2.7919 O   0  0  0  0  0  0  0  0  0  0  0  0
  -10.0769   -1.0826   -1.4558 C   0  0  0  0  0  0  0  0  0  0  0  0
  -10.5971   -1.4661   -0.2464 N   0  0  0  0  0  0  0  0  0  0  0  0
  -11.7285   -2.1797   -0.4409 C   0  0  0  0  0  0  0  0  0  0  0  0
  -12.6271   -2.7872    0.4180 C   0  0  0  0  0  0  0  0  0  0  0  0
  -13.7180   -3.4607   -0.0712 C   0  0  0  0  0  0  0  0  0  0  0  0
  -13.9683   -3.5624   -1.4388 C   0  0  0  0  0  0  0  0  0  0  0  0
  -13.0762   -2.9594   -2.2846 C   0  0  0  0  0  0  0  0  0  0  0  0
  -11.9812   -2.2834   -1.7887 C   0  0  0  0  0  0  0  0  0  0  0  0
  -10.9284   -1.5856   -2.3950 C   0  0  0  0  0  0  0  0  0  0  0  0
  -10.8581   -1.4813   -3.7755 O   0  0  0  0  0  0  0  0  0  0  0  0
   -2.3583   -0.3936   -0.5748 C   0  0  0  0  0  0  0  0  0  0  0  0
   -2.9580   -1.0991   -1.4255 O   0  0  0  0  0  0  0  0  0  0  0  0
   -0.9850   -0.1768   -0.6143 N   0  0  0  0  0  0  0  0  0  0  0  0
   -0.0157   -0.6777   -1.5546 C   0  0  1  0  0  0  0  0  0  0  0  0
    0.0487    0.3391   -2.6684 C   0  0  0  0  0  0  0  0  0  0  0  0
    0.4150    1.6961   -2.2688 C   0  0  0  0  0  0  0  0  0  0  0  0
   -0.5575    2.6236   -1.8738 C   0  0  0  0  0  0  0  0  0  0  0  0
   -0.2417    3.9097   -1.5049 C   0  0  0  0  0  0  0  0  0  0  0  0
    1.0760    4.2969   -1.5261 C   0  0  0  0  0  0  0  0  0  0  0  0
    2.0680    3.3964   -1.9154 C   0  0  0  0  0  0  0  0  0  0  0  0
    1.7106    2.1161   -2.2778 C   0  0  0  0  0  0  0  0  0  0  0  0
    1.2678   -0.9975   -0.9570 C   0  0  0  0  0  0  0  0  0  0  0  0
    1.3522   -0.7503    0.3197 O   0  0  0  0  0  0  0  0  0  0  0  0
    2.4160   -1.5401   -1.5758 N   0  0  0  0  0  0  0  0  0  0  0  0
    2.5275   -1.8286   -2.9826 C   0  0  0  0  0  0  0  0  0  0  0  0
    3.5639   -2.9178   -3.1270 C   0  0  0  0  0  0  0  0  0  0  0  0
    4.3917   -2.7985   -1.8931 C   0  0  0  0  0  0  0  0  0  0  0  0
    3.6215   -1.9286   -0.9249 C   0  0  1  0  0  0  0  0  0  0  0  0
    4.5002   -0.8720   -0.4541 C   0  0  0  0  0  0  0  0  0  0  0  0
    4.3572    0.3488   -0.6554 O   0  0  0  0  0  0  0  0  0  0  0  0
    5.6528   -1.2400    0.3210 N   0  0  0  0  0  0  0  0  0  0  0  0
    6.5698   -0.2174    0.8196 C   0  0  1  0  0  0  0  0  0  0  0  0
    6.2781    0.0243    2.3087 C   0  0  1  0  0  0  0  0  0  0  0  0
    6.5056   -1.2514    3.0935 C   0  0  0  0  0  0  0  0  0  0  0  0
    7.1434    1.0010    2.7715 O   0  0  0  0  0  0  0  0  0  0  0  0
    7.9660   -0.5623    0.5827 C   0  0  0  0  0  0  0  0  0  0  0  0
    8.2038   -1.7111    0.0739 O   0  0  0  0  0  0  0  0  0  0  0  0
    9.0922    0.2292    0.8512 N   0  0  0  0  0  0  0  0  0  0  0  0
   10.4791   -0.2234    0.5844 C   0  0  1  0  0  0  0  0  0  0  0  0
   11.0402    0.5264   -0.5662 C   0  0  0  0  0  0  0  0  0  0  0  0
   12.4173    0.1580   -0.9025 C   0  0  0  0  0  0  0  0  0  0  0  0
   13.4742    0.9464   -0.4472 C   0  0  0  0  0  0  0  0  0  0  0  0
   14.7481    0.5623   -0.7770 C   0  0  0  0  0  0  0  0  0  0  0  0
   14.9929   -0.5672   -1.5349 C   0  0  0  0  0  0  0  0  0  0  0  0
   13.9479   -1.3495   -1.9864 C   0  0  0  0  0  0  0  0  0  0  0  0
   12.6669   -0.9829   -1.6679 C   0  0  0  0  0  0  0  0  0  0  0  0
   11.2751   -0.1378    1.7896 C   0  0  0  0  0  0  0  0  0  0  0  0
   12.5537   -0.5993    1.8906 O   0  0  0  0  0  0  0  0  0  0  0  0
   10.7636    0.3966    2.8348 O   0  0  0  0  0  0  0  0  0  0  0  0
   -2.9174    1.2343    4.4785 H   0  0  0  0  0  0  0  0  0  0  0  0
   -2.9821    1.7993    2.7433 H   0  0  0  0  0  0  0  0  0  0  0  0
   -1.6912    0.6778    3.2811 H   0  0  0  0  0  0  0  0  0  0  0  0
   -3.0840   -1.0836    3.7341 H   0  0  0  0  0  0  0  0  0  0  0  0
   -5.5356    0.5815    3.0006 H   0  0  0  0  0  0  0  0  0  0  0  0
   -5.4724   -1.2309    3.1601 H   0  0  0  0  0  0  0  0  0  0  0  0
   -5.0409   -0.1587    4.5330 H   0  0  0  0  0  0  0  0  0  0  0  0
   -3.8086   -1.6004    1.3850 H   0  0  0  0  0  0  0  0  0  0  0  0
   -2.1270   -1.2141    1.7098 H   0  0  0  0  0  0  0  0  0  0  0  0
   -2.5696    1.1130    0.8628 H   0  0  0  0  0  0  0  0  0  0  0  0
   -4.3939    1.7587   -0.3041 H   0  0  0  0  0  0  0  0  0  0  0  0
   -6.6948    0.9255   -1.7846 H   0  0  0  0  0  0  0  0  0  0  0  0
   -6.2650    2.9750   -0.8723 H   0  0  0  0  0  0  0  0  0  0  0  0
   -7.9955    2.6922   -0.8683 H   0  0  0  0  0  0  0  0  0  0  0  0
   -9.2441    2.4041    1.1542 H   0  0  0  0  0  0  0  0  0  0  0  0
   -9.5522    3.2072    3.4211 H   0  0  0  0  0  0  0  0  0  0  0  0
   -7.6431    4.1104    4.7155 H   0  0  0  0  0  0  0  0  0  0  0  0
   -5.4286    4.1604    3.6158 H   0  0  0  0  0  0  0  0  0  0  0  0
   -5.1192    3.3605    1.3447 H   0  0  0  0  0  0  0  0  0  0  0  0
   -8.4213   -0.0892    0.4235 H   0  0  0  0  0  0  0  0  0  0  0  0
  -10.1594   -1.2270    0.6768 H   0  0  0  0  0  0  0  0  0  0  0  0
  -12.4639   -2.7294    1.4815 H   0  0  0  0  0  0  0  0  0  0  0  0
  -14.4263   -3.9386    0.6115 H   0  0  0  0  0  0  0  0  0  0  0  0
  -14.8471   -4.1083   -1.7369 H   0  0  0  0  0  0  0  0  0  0  0  0
  -13.2246   -3.0113   -3.3415 H   0  0  0  0  0  0  0  0  0  0  0  0
  -10.1436   -0.9995   -4.2471 H   0  0  0  0  0  0  0  0  0  0  0  0
   -0.5794    0.4458    0.1545 H   0  0  0  0  0  0  0  0  0  0  0  0
   -0.4726   -1.5902   -2.0776 H   0  0  0  0  0  0  0  0  0  0  0  0
   -1.0164    0.4058   -3.0602 H   0  0  0  0  0  0  0  0  0  0  0  0
    0.6166   -0.0248   -3.5538 H   0  0  0  0  0  0  0  0  0  0  0  0
   -1.6009    2.3390   -1.8544 H   0  0  0  0  0  0  0  0  0  0  0  0
   -0.9845    4.6311   -1.1991 H   0  0  0  0  0  0  0  0  0  0  0  0
    1.3517    5.3188   -1.2364 H   0  0  0  0  0  0  0  0  0  0  0  0
    3.0803    3.7492   -1.9142 H   0  0  0  0  0  0  0  0  0  0  0  0
    2.5300    1.4640   -2.5765 H   0  0  0  0  0  0  0  0  0  0  0  0
    1.5346   -2.2190   -3.3195 H   0  0  0  0  0  0  0  0  0  0  0  0
    2.8001   -0.9478   -3.5989 H   0  0  0  0  0  0  0  0  0  0  0  0
    3.0328   -3.8887   -3.1846 H   0  0  0  0  0  0  0  0  0  0  0  0
    4.1526   -2.7941   -4.0595 H   0  0  0  0  0  0  0  0  0  0  0  0
    4.5370   -3.7910   -1.4535 H   0  0  0  0  0  0  0  0  0  0  0  0
    5.3713   -2.3287   -2.1560 H   0  0  0  0  0  0  0  0  0  0  0  0
    3.3540   -2.5538   -0.0155 H   0  0  0  0  0  0  0  0  0  0  0  0
    5.8557   -2.2341    0.5377 H   0  0  0  0  0  0  0  0  0  0  0  0
    6.3133    0.7278    0.3198 H   0  0  0  0  0  0  0  0  0  0  0  0
    5.2363    0.3531    2.4344 H   0  0  0  0  0  0  0  0  0  0  0  0
    7.2181   -1.8670    2.4691 H   0  0  0  0  0  0  0  0  0  0  0  0
    6.9991   -1.0760    4.0665 H   0  0  0  0  0  0  0  0  0  0  0  0
    5.5793   -1.8505    3.1860 H   0  0  0  0  0  0  0  0  0  0  0  0
    6.6267    1.6831    3.2550 H   0  0  0  0  0  0  0  0  0  0  0  0
    8.9951    1.1761    1.2455 H   0  0  0  0  0  0  0  0  0  0  0  0
   10.3668   -1.2846    0.2521 H   0  0  0  0  0  0  0  0  0  0  0  0
   11.0328    1.6344   -0.3994 H   0  0  0  0  0  0  0  0  0  0  0  0
   10.3846    0.4042   -1.4864 H   0  0  0  0  0  0  0  0  0  0  0  0
   13.2730    1.8353    0.1513 H   0  0  0  0  0  0  0  0  0  0  0  0
   15.5862    1.1637   -0.4326 H   0  0  0  0  0  0  0  0  0  0  0  0
   16.0326   -0.7960   -1.7482 H   0  0  0  0  0  0  0  0  0  0  0  0
   14.1900   -2.2310   -2.5790 H   0  0  0  0  0  0  0  0  0  0  0  0
   11.8433   -1.6075   -2.0250 H   0  0  0  0  0  0  0  0  0  0  0  0
   12.8524   -1.3384    2.5097 H   0  0  0  0  0  0  0  0  0  0  0  0
  1  2  1  0
  2  3  1  0
  2  4  1  0
  4  5  1  0
  5  6  1  0
  6  7  1  0
  7  8  2  0
  7  9  1  0
  9 10  1  0
 10 11  1  0
 11 12  2  0
 12 13  1  0
 13 14  2  0
 14 15  1  0
 15 16  2  0
  9 17  1  0
 17 18  1  0
 18 19  2  0
 18 20  1  0
 20 21  1  0
 21 22  1  0
 22 23  2  0
 23 24  1  0
 24 25  2  0
 25 26  1  0
 26 27  2  0
 27 28  1  0
 28 29  1  0
  5 30  1  0
 30 31  2  0
 30 32  1  0
 32 33  1  0
 33 34  1  0
 34 35  1  0
 35 36  2  0
 36 37  1  0
 37 38  2  0
 38 39  1  0
 39 40  2  0
 33 41  1  0
 41 42  2  0
 41 43  1  0
 43 44  1  0
 44 45  1  0
 45 46  1  0
 46 47  1  0
 47 48  1  0
 48 49  2  0
 48 50  1  0
 50 51  1  0
 51 52  1  0
 52 53  1  0
 52 54  1  0
 51 55  1  0
 55 56  2  0
 55 57  1  0
 57 58  1  0
 58 59  1  0
 59 60  1  0
 60 61  2  0
 61 62  1  0
 62 63  2  0
 63 64  1  0
 64 65  2  0
 58 66  1  0
 66 67  1  0
 66 68  2  0
 16 11  1  0
 28 20  2  0
 40 35  1  0
 47 43  1  0
 65 60  1  0
 27 22  1  0
  1 69  1  0
  1 70  1  0
  1 71  1  0
  2 72  1  0
  3 73  1  0
  3 74  1  0
  3 75  1  0
  4 76  1  0
  4 77  1  0
  5 78  1  1
  6 79  1  0
  9 80  1  6
 10 81  1  0
 10 82  1  0
 12 83  1  0
 13 84  1  0
 14 85  1  0
 15 86  1  0
 16 87  1  0
 17 88  1  0
 21 89  1  0
 23 90  1  0
 24 91  1  0
 25 92  1  0
 26 93  1  0
 29 94  1  0
 32 95  1  0
 33 96  1  6
 34 97  1  0
 34 98  1  0
 36 99  1  0
 37100  1  0
 38101  1  0
 39102  1  0
 40103  1  0
 44104  1  0
 44105  1  0
 45106  1  0
 45107  1  0
 46108  1  0
 46109  1  0
 47110  1  1
 50111  1  0
 51112  1  6
 52113  1  6
 53114  1  0
 53115  1  0
 53116  1  0
 54117  1  0
 57118  1  0
 58119  1  6
 59120  1  0
 59121  1  0
 61122  1  0
 62123  1  0
 63124  1  0
 64125  1  0
 65126  1  0
 67127  1  0
M  END
$$$$
[H]c1c([H])c([H])c(C([H])([H])OC(=O)N(C([H])([H])[H])[C@]2([H])C([H])([H])[C@@]3([H])O[C@](C([H])([H])[H])(n4c5c([H])c([H])c([H])c([H])c5c5c6c(c7c8c([H])c([H])c([H])c([H])c8n3c7c54)C(=O)N([H])C6([H])[H])[C@]2([H])OC([H])([H])[H])c([H])c1[H]
     RDKit          3D

 77 85  0  0  0  0  0  0  0  0999 V2000
    0.4941    2.1033   -0.9671 C   0  0  0  0  0  0  0  0  0  0  0  0
    0.0143    0.9182   -0.4136 O   0  0  0  0  0  0  0  0  0  0  0  0
    0.3069    0.6813    0.8720 C   0  0  2  0  0  0  0  0  0  0  0  0
    1.0961   -0.5871    1.1923 C   0  0  1  0  0  0  0  0  0  0  0  0
    0.3395   -1.6918    0.5156 C   0  0  0  0  0  0  0  0  0  0  0  0
   -0.9984   -1.7228    1.1953 C   0  0  1  0  0  0  0  0  0  0  0  0
   -1.2099   -0.7435    2.0989 O   0  0  0  0  0  0  0  0  0  0  0  0
   -0.9517    0.5705    1.7742 C   0  0  1  0  0  0  0  0  0  0  0  0
   -0.4772    1.1838    3.0684 C   0  0  0  0  0  0  0  0  0  0  0  0
   -2.0790    1.1427    1.1278 N   0  0  0  0  0  0  0  0  0  0  0  0
   -2.5060    2.4493    1.1716 C   0  0  0  0  0  0  0  0  0  0  0  0
   -2.0000    3.5570    1.8191 C   0  0  0  0  0  0  0  0  0  0  0  0
   -2.6710    4.7600    1.6481 C   0  0  0  0  0  0  0  0  0  0  0  0
   -3.7943    4.8339    0.8613 C   0  0  0  0  0  0  0  0  0  0  0  0
   -4.3166    3.7441    0.2053 C   0  0  0  0  0  0  0  0  0  0  0  0
   -3.6395    2.5503    0.3835 C   0  0  0  0  0  0  0  0  0  0  0  0
   -3.8835    1.2982   -0.1307 C   0  0  0  0  0  0  0  0  0  0  0  0
   -4.8716    0.8048   -1.0013 C   0  0  0  0  0  0  0  0  0  0  0  0
   -5.9876    1.5247   -1.5895 C   0  0  0  0  0  0  0  0  0  0  0  0
   -6.6651    0.6107   -2.4220 N   0  0  0  0  0  0  0  0  0  0  0  0
   -6.0365   -0.6589   -2.3093 C   0  0  0  0  0  0  0  0  0  0  0  0
   -6.4811   -1.6391   -2.9292 O   0  0  0  0  0  0  0  0  0  0  0  0
   -4.9095   -0.5082   -1.4093 C   0  0  0  0  0  0  0  0  0  0  0  0
   -3.9415   -1.3852   -0.9473 C   0  0  0  0  0  0  0  0  0  0  0  0
   -3.6612   -2.7109   -1.1175 C   0  0  0  0  0  0  0  0  0  0  0  0
   -4.2776   -3.6874   -1.8538 C   0  0  0  0  0  0  0  0  0  0  0  0
   -3.7234   -4.9770   -1.8099 C   0  0  0  0  0  0  0  0  0  0  0  0
   -2.6052   -5.2691   -1.0627 C   0  0  0  0  0  0  0  0  0  0  0  0
   -2.0232   -4.2497   -0.3397 C   0  0  0  0  0  0  0  0  0  0  0  0
   -2.5398   -2.9642   -0.3568 C   0  0  0  0  0  0  0  0  0  0  0  0
   -2.1268   -1.8549    0.2671 N   0  0  0  0  0  0  0  0  0  0  0  0
   -2.9815   -0.8830   -0.0930 C   0  0  0  0  0  0  0  0  0  0  0  0
   -2.9265    0.4337    0.3258 C   0  0  0  0  0  0  0  0  0  0  0  0
    2.4875   -0.5350    0.9868 N   0  0  0  0  0  0  0  0  0  0  0  0
    3.3275   -0.5345    2.2161 C   0  0  0  0  0  0  0  0  0  0  0  0
    3.2179   -0.4814   -0.2185 C   0  0  0  0  0  0  0  0  0  0  0  0
    2.7131   -0.5227   -1.3693 O   0  0  0  0  0  0  0  0  0  0  0  0
    4.6126   -0.3738   -0.1915 O   0  0  0  0  0  0  0  0  0  0  0  0
    5.3659   -0.3182   -1.4124 C   0  0  0  0  0  0  0  0  0  0  0  0
    6.8016   -0.2067   -0.9723 C   0  0  0  0  0  0  0  0  0  0  0  0
    7.4110    1.0039   -0.7605 C   0  0  0  0  0  0  0  0  0  0  0  0
    8.7333    1.0552   -0.3563 C   0  0  0  0  0  0  0  0  0  0  0  0
    9.4803   -0.1077   -0.1536 C   0  0  0  0  0  0  0  0  0  0  0  0
    8.8726   -1.3107   -0.3647 C   0  0  0  0  0  0  0  0  0  0  0  0
    7.5482   -1.3450   -0.7692 C   0  0  0  0  0  0  0  0  0  0  0  0
    1.6070    2.1493   -0.9309 H   0  0  0  0  0  0  0  0  0  0  0  0
    0.1753    2.0995   -2.0356 H   0  0  0  0  0  0  0  0  0  0  0  0
    0.0317    2.9860   -0.4984 H   0  0  0  0  0  0  0  0  0  0  0  0
    0.9482    1.5372    1.2274 H   0  0  0  0  0  0  0  0  0  0  0  0
    0.9107   -0.7415    2.3244 H   0  0  0  0  0  0  0  0  0  0  0  0
    0.8725   -2.6599    0.5419 H   0  0  0  0  0  0  0  0  0  0  0  0
    0.1660   -1.3757   -0.5420 H   0  0  0  0  0  0  0  0  0  0  0  0
   -1.0169   -2.6877    1.7870 H   0  0  0  0  0  0  0  0  0  0  0  0
   -1.3289    1.5454    3.6772 H   0  0  0  0  0  0  0  0  0  0  0  0
   -0.0763    0.3635    3.7637 H   0  0  0  0  0  0  0  0  0  0  0  0
    0.3890    1.8372    2.9922 H   0  0  0  0  0  0  0  0  0  0  0  0
   -1.1211    3.4864    2.4093 H   0  0  0  0  0  0  0  0  0  0  0  0
   -2.2497    5.6137    2.1706 H   0  0  0  0  0  0  0  0  0  0  0  0
   -4.2696    5.8079    0.7719 H   0  0  0  0  0  0  0  0  0  0  0  0
   -5.1974    3.8805   -0.3945 H   0  0  0  0  0  0  0  0  0  0  0  0
   -6.6318    2.0577   -0.8647 H   0  0  0  0  0  0  0  0  0  0  0  0
   -5.5563    2.3397   -2.2418 H   0  0  0  0  0  0  0  0  0  0  0  0
   -7.5053    0.8724   -3.0200 H   0  0  0  0  0  0  0  0  0  0  0  0
   -5.1481   -3.5435   -2.4582 H   0  0  0  0  0  0  0  0  0  0  0  0
   -4.2242   -5.7371   -2.3987 H   0  0  0  0  0  0  0  0  0  0  0  0
   -2.1983   -6.2778   -1.0482 H   0  0  0  0  0  0  0  0  0  0  0  0
   -1.1397   -4.4236    0.2669 H   0  0  0  0  0  0  0  0  0  0  0  0
    2.7624   -0.1426    3.0739 H   0  0  0  0  0  0  0  0  0  0  0  0
    4.2837   -0.0385    2.0407 H   0  0  0  0  0  0  0  0  0  0  0  0
    3.5154   -1.6132    2.4104 H   0  0  0  0  0  0  0  0  0  0  0  0
    5.2555   -1.2619   -1.9931 H   0  0  0  0  0  0  0  0  0  0  0  0
    5.0899    0.5808   -2.0048 H   0  0  0  0  0  0  0  0  0  0  0  0
    6.8405    1.9136   -0.9148 H   0  0  0  0  0  0  0  0  0  0  0  0
    9.2281    1.9977   -0.1852 H   0  0  0  0  0  0  0  0  0  0  0  0
   10.5123   -0.0081    0.1632 H   0  0  0  0  0  0  0  0  0  0  0  0
    9.4412   -2.2149   -0.2108 H   0  0  0  0  0  0  0  0  0  0  0  0
    7.0970   -2.2996   -0.9272 H   0  0  0  0  0  0  0  0  0  0  0  0
  1  2  1  0
  2  3  1  0
  3  4  1  0
  4  5  1  0
  5  6  1  0
  6  7  1  0
  7  8  1  0
  8  9  1  1
  8 10  1  0
 10 11  1  0
 11 12  2  0
 12 13  1  0
 13 14  2  0
 14 15  1  0
 15 16  2  0
 16 17  1  0
 17 18  2  0
 18 19  1  0
 19 20  1  0
 20 21  1  0
 21 22  2  0
 21 23  1  0
 23 24  2  0
 24 25  1  0
 25 26  2  0
 26 27  1  0
 27 28  2  0
 28 29  1  0
 29 30  2  0
 30 31  1  0
 31 32  1  0
 32 33  2  0
  4 34  1  0
 34 35  1  0
 34 36  1  0
 36 37  2  0
 36 38  1  0
 38 39  1  0
 39 40  1  0
 40 41  2  0
 41 42  1  0
 42 43  2  0
 43 44  1  0
 44 45  2  0
  8  3  1  0
 33 10  1  0
 45 40  1  0
 31  6  1  0
 16 11  1  0
 33 17  1  0
 23 18  1  0
 32 24  1  0
 30 25  1  0
  1 46  1  0
  1 47  1  0
  1 48  1  0
  3 49  1  1
  4 50  1  1
  5 51  1  0
  5 52  1  0
  6 53  1  1
  9 54  1  0
  9 55  1  0
  9 56  1  0
 12 57  1  0
 13 58  1  0
 14 59  1  0
 15 60  1  0
 19 61  1  0
 19 62  1  0
 20 63  1  0
 26 64  1  0
 27 65  1  0
 28 66  1  0
 29 67  1  0
 35 68  1  0
 35 69  1  0
 35 70  1  0
 39 71  1  0
 39 72  1  0
 41 73  1  0
 42 74  1  0
 43 75  1  0
 44 76  1  0
 45 77  1  0
M  END
$$$$
[H]C#C[C@]1(O[H])C([H])([H])C([H])([H])[C@]2([H])[C@]1(C([H])([H])[H])C([H])([H])C([H])([H])[C@]1([H])C3(C([H])([H])[H])C(=C([H])C(=O)C([H])([H])C3([H])[H])C([H])([H])C([H])([H])[C@]12[H]
     RDKit          3D

 51 54  0  0  0  0  0  0  0  0999 V2000
    1.7768   -1.1211    1.6164 C   0  0  0  0  0  0  0  0  0  0  0  0
    2.1181   -0.0356    0.6303 C   0  0  2  0  0  0  0  0  0  0  0  0
    1.5636    1.2681    1.0596 C   0  0  0  0  0  0  0  0  0  0  0  0
    0.0747    1.2149    1.1629 C   0  0  0  0  0  0  0  0  0  0  0  0
   -0.6206    0.5292    0.0359 C   0  0  1  0  0  0  0  0  0  0  0  0
    0.1001   -0.7198   -0.4545 C   0  0  1  0  0  0  0  0  0  0  0  0
   -0.6707   -1.1717   -1.7021 C   0  0  0  0  0  0  0  0  0  0  0  0
   -1.9387   -1.8111   -1.1733 C   0  0  0  0  0  0  0  0  0  0  0  0
   -2.7160   -0.7267   -0.4805 C   0  0  0  0  0  0  0  0  0  0  0  0
   -4.0304   -0.6992   -0.6358 C   0  0  0  0  0  0  0  0  0  0  0  0
   -4.8676    0.3167   -0.0015 C   0  0  0  0  0  0  0  0  0  0  0  0
   -6.0973    0.1538    0.1201 O   0  0  0  0  0  0  0  0  0  0  0  0
   -4.2298    1.5556    0.5007 C   0  0  0  0  0  0  0  0  0  0  0  0
   -2.7810    1.6332    0.1255 C   0  0  0  0  0  0  0  0  0  0  0  0
   -2.0592    0.2988    0.3607 C   0  0  0  0  0  0  0  0  0  0  0  0
   -2.2653   -0.1095    1.8057 C   0  0  0  0  0  0  0  0  0  0  0  0
    1.4778   -0.3038   -0.7422 C   0  0  2  0  0  0  0  0  0  0  0  0
    2.4117   -1.2650   -1.3294 C   0  0  0  0  0  0  0  0  0  0  0  0
    3.7454   -0.5356   -1.0843 C   0  0  0  0  0  0  0  0  0  0  0  0
    3.5701   -0.0778    0.3491 C   0  0  2  0  0  0  0  0  0  0  0  0
    4.2195   -1.0527    1.1401 O   0  0  0  0  0  0  0  0  0  0  0  0
    4.2621    1.1772    0.6092 C   0  0  0  0  0  0  0  0  0  0  0  0
    4.8281    2.2152    0.8350 C   0  0  0  0  0  0  0  0  0  0  0  0
    0.8685   -0.8917    2.2022 H   0  0  0  0  0  0  0  0  0  0  0  0
    2.6114   -1.1447    2.3726 H   0  0  0  0  0  0  0  0  0  0  0  0
    1.7627   -2.1236    1.1537 H   0  0  0  0  0  0  0  0  0  0  0  0
    1.9401    2.0731    0.3983 H   0  0  0  0  0  0  0  0  0  0  0  0
    1.9641    1.4996    2.0790 H   0  0  0  0  0  0  0  0  0  0  0  0
   -0.2843    2.2874    1.1551 H   0  0  0  0  0  0  0  0  0  0  0  0
   -0.2143    0.8364    2.1693 H   0  0  0  0  0  0  0  0  0  0  0  0
   -0.5960    1.2385   -0.8421 H   0  0  0  0  0  0  0  0  0  0  0  0
    0.0065   -1.5537    0.2676 H   0  0  0  0  0  0  0  0  0  0  0  0
   -0.8877   -0.3100   -2.3648 H   0  0  0  0  0  0  0  0  0  0  0  0
   -0.0885   -1.9508   -2.2504 H   0  0  0  0  0  0  0  0  0  0  0  0
   -1.6083   -2.5633   -0.4083 H   0  0  0  0  0  0  0  0  0  0  0  0
   -2.5592   -2.2606   -1.9579 H   0  0  0  0  0  0  0  0  0  0  0  0
   -4.4809   -1.4741   -1.2652 H   0  0  0  0  0  0  0  0  0  0  0  0
   -4.3521    1.6731    1.5869 H   0  0  0  0  0  0  0  0  0  0  0  0
   -4.7470    2.4044   -0.0352 H   0  0  0  0  0  0  0  0  0  0  0  0
   -2.2927    2.4633    0.6423 H   0  0  0  0  0  0  0  0  0  0  0  0
   -2.7424    1.7836   -0.9869 H   0  0  0  0  0  0  0  0  0  0  0  0
   -1.5280   -0.8562    2.1425 H   0  0  0  0  0  0  0  0  0  0  0  0
   -2.2397    0.8330    2.4090 H   0  0  0  0  0  0  0  0  0  0  0  0
   -3.2647   -0.5743    1.9489 H   0  0  0  0  0  0  0  0  0  0  0  0
    1.4754    0.6428   -1.3056 H   0  0  0  0  0  0  0  0  0  0  0  0
    2.3119   -1.3759   -2.4405 H   0  0  0  0  0  0  0  0  0  0  0  0
    2.4285   -2.2357   -0.8321 H   0  0  0  0  0  0  0  0  0  0  0  0
    4.6027   -1.1880   -1.2323 H   0  0  0  0  0  0  0  0  0  0  0  0
    3.7460    0.3714   -1.7343 H   0  0  0  0  0  0  0  0  0  0  0  0
    4.9525   -1.4685    0.6181 H   0  0  0  0  0  0  0  0  0  0  0  0
    5.3440    3.1315    1.0477 H   0  0  0  0  0  0  0  0  0  0  0  0
  2  1  1  1
  2  3  1  0
  3  4  1  0
  4  5  1  0
  5  6  1  0
  6  7  1  0
  7  8  1  0
  8  9  1  0
  9 10  2  0
 10 11  1  0
 11 12  2  0
 11 13  1  0
 13 14  1  0
 14 15  1  0
 15 16  1  0
  6 17  1  0
 17 18  1  0
 18 19  1  0
 19 20  1  0
 20 21  1  0
 20 22  1  6
 22 23  3  0
 17  2  1  0
 20  2  1  0
 15  5  1  0
 15  9  1  0
  1 24  1  0
  1 25  1  0
  1 26  1  0
  3 27  1  0
  3 28  1  0
  4 29  1  0
  4 30  1  0
  5 31  1  6
  6 32  1  1
  7 33  1  0
  7 34  1  0
  8 35  1  0
  8 36  1  0
 10 37  1  0
 13 38  1  0
 13 39  1  0
 14 40  1  0
 14 41  1  0
 16 42  1  0
 16 43  1  0
 16 44  1  0
 17 45  1  6
 18 46  1  0
 18 47  1  0
 19 48  1  0
 19 49  1  0
 21 50  1  0
 23 51  1  0
M  END
$$$$
[H]c1c([H])c(N([H])C(=O)N([H])c2c([H])c([H])c(C(C#N)(C([H])([H])[H])C([H])([H])[H])c([H])c2[H])c([H])c([H])c1-c1nc(N2C([H])([H])C([H])([H])OC([H])([H])[C@@]2([H])C([H])([H])[H])nc(C2([H])C([H])([H])C([H])([H])OC([H])([H])C2([H])[H])n1
     RDKit          3D

 75 79  0  0  0  0  0  0  0  0999 V2000
   -7.2621    1.8320   -0.2542 C   0  0  0  0  0  0  0  0  0  0  0  0
   -6.3499    2.3497    0.8055 C   0  0  2  0  0  0  0  0  0  0  0  0
   -6.5695    3.8630    0.9548 C   0  0  0  0  0  0  0  0  0  0  0  0
   -6.0598    4.5184   -0.1398 O   0  0  0  0  0  0  0  0  0  0  0  0
   -4.6914    4.4503   -0.2548 C   0  0  0  0  0  0  0  0  0  0  0  0
   -4.1000    3.3555    0.6150 C   0  0  0  0  0  0  0  0  0  0  0  0
   -4.9470    2.1703    0.5142 N   0  0  0  0  0  0  0  0  0  0  0  0
   -4.4023    0.9028    0.1476 C   0  0  0  0  0  0  0  0  0  0  0  0
   -5.1952   -0.1778    0.1795 N   0  0  0  0  0  0  0  0  0  0  0  0
   -4.6983   -1.3857   -0.1758 C   0  0  0  0  0  0  0  0  0  0  0  0
   -3.4363   -1.4370   -0.5373 N   0  0  0  0  0  0  0  0  0  0  0  0
   -2.5693   -0.3891   -0.5931 C   0  0  0  0  0  0  0  0  0  0  0  0
   -3.1009    0.7920   -0.2366 N   0  0  0  0  0  0  0  0  0  0  0  0
   -1.1792   -0.5675   -0.9672 C   0  0  0  0  0  0  0  0  0  0  0  0
   -0.3122    0.4812   -1.1094 C   0  0  0  0  0  0  0  0  0  0  0  0
    1.0468    0.3195   -1.4327 C   0  0  0  0  0  0  0  0  0  0  0  0
    1.5415   -0.9655   -1.6207 C   0  0  0  0  0  0  0  0  0  0  0  0
    2.9166   -1.2014   -1.9165 N   0  0  0  0  0  0  0  0  0  0  0  0
    3.9775   -0.6009   -1.1671 C   0  0  0  0  0  0  0  0  0  0  0  0
    3.6881    0.1782   -0.1921 O   0  0  0  0  0  0  0  0  0  0  0  0
    5.3001   -0.9089   -1.5401 N   0  0  0  0  0  0  0  0  0  0  0  0
    6.4266   -0.4010   -0.8669 C   0  0  0  0  0  0  0  0  0  0  0  0
    7.5971   -1.2100   -0.8611 C   0  0  0  0  0  0  0  0  0  0  0  0
    8.7412   -0.7988   -0.2363 C   0  0  0  0  0  0  0  0  0  0  0  0
    8.8587    0.3979    0.4232 C   0  0  0  0  0  0  0  0  0  0  0  0
    7.7192    1.2084    0.4255 C   0  0  0  0  0  0  0  0  0  0  0  0
    6.5589    0.7857   -0.2128 C   0  0  0  0  0  0  0  0  0  0  0  0
   10.1134    0.7630    1.0823 C   0  0  0  0  0  0  0  0  0  0  0  0
   11.3601    0.4772    0.2426 C   0  0  0  0  0  0  0  0  0  0  0  0
   10.1884    2.2416    1.4193 C   0  0  0  0  0  0  0  0  0  0  0  0
   10.2123   -0.0052    2.3160 C   0  0  0  0  0  0  0  0  0  0  0  0
   10.3085   -0.6072    3.3159 N   0  0  0  0  0  0  0  0  0  0  0  0
    0.6666   -2.0204   -1.4757 C   0  0  0  0  0  0  0  0  0  0  0  0
   -0.6607   -1.8557   -1.1579 C   0  0  0  0  0  0  0  0  0  0  0  0
   -5.5368   -2.6041   -0.1657 C   0  0  0  0  0  0  0  0  0  0  0  0
   -6.9478   -2.3611   -0.6193 C   0  0  0  0  0  0  0  0  0  0  0  0
   -7.4734   -3.7544   -1.0088 C   0  0  0  0  0  0  0  0  0  0  0  0
   -7.1997   -4.6735   -0.0337 O   0  0  0  0  0  0  0  0  0  0  0  0
   -6.8270   -4.1489    1.1745 C   0  0  0  0  0  0  0  0  0  0  0  0
   -5.5295   -3.3590    1.1452 C   0  0  0  0  0  0  0  0  0  0  0  0
   -6.7258    1.6142   -1.1935 H   0  0  0  0  0  0  0  0  0  0  0  0
   -8.0381    2.6198   -0.4672 H   0  0  0  0  0  0  0  0  0  0  0  0
   -7.8509    0.9587    0.1088 H   0  0  0  0  0  0  0  0  0  0  0  0
   -6.5544    1.9005    1.8062 H   0  0  0  0  0  0  0  0  0  0  0  0
   -7.6646    4.0337    0.9708 H   0  0  0  0  0  0  0  0  0  0  0  0
   -6.0645    4.1854    1.8947 H   0  0  0  0  0  0  0  0  0  0  0  0
   -4.4074    4.2136   -1.3234 H   0  0  0  0  0  0  0  0  0  0  0  0
   -4.1992    5.4140   -0.0182 H   0  0  0  0  0  0  0  0  0  0  0  0
   -4.0951    3.7348    1.6522 H   0  0  0  0  0  0  0  0  0  0  0  0
   -3.0780    3.1876    0.2917 H   0  0  0  0  0  0  0  0  0  0  0  0
   -0.6602    1.5031   -0.9775 H   0  0  0  0  0  0  0  0  0  0  0  0
    1.7301    1.1438   -1.5574 H   0  0  0  0  0  0  0  0  0  0  0  0
    3.2070   -1.8382   -2.7092 H   0  0  0  0  0  0  0  0  0  0  0  0
    5.4419   -1.5458   -2.3643 H   0  0  0  0  0  0  0  0  0  0  0  0
    7.5134   -2.1469   -1.3784 H   0  0  0  0  0  0  0  0  0  0  0  0
    9.6343   -1.4588   -0.2503 H   0  0  0  0  0  0  0  0  0  0  0  0
    7.7572    2.1424    0.9202 H   0  0  0  0  0  0  0  0  0  0  0  0
    5.6762    1.4499   -0.2040 H   0  0  0  0  0  0  0  0  0  0  0  0
   11.4285   -0.6164    0.1068 H   0  0  0  0  0  0  0  0  0  0  0  0
   11.3237    0.9363   -0.7511 H   0  0  0  0  0  0  0  0  0  0  0  0
   12.2704    0.7838    0.8064 H   0  0  0  0  0  0  0  0  0  0  0  0
    9.4198    2.5673    2.1419 H   0  0  0  0  0  0  0  0  0  0  0  0
   10.2208    2.8075    0.4927 H   0  0  0  0  0  0  0  0  0  0  0  0
   11.1815    2.3960    1.9155 H   0  0  0  0  0  0  0  0  0  0  0  0
    1.0564   -3.0332   -1.6216 H   0  0  0  0  0  0  0  0  0  0  0  0
   -1.3514   -2.6640   -1.0384 H   0  0  0  0  0  0  0  0  0  0  0  0
   -5.0575   -3.3041   -0.9108 H   0  0  0  0  0  0  0  0  0  0  0  0
   -7.5951   -1.9031    0.1424 H   0  0  0  0  0  0  0  0  0  0  0  0
   -6.9259   -1.7710   -1.5480 H   0  0  0  0  0  0  0  0  0  0  0  0
   -6.8283   -4.0243   -1.8973 H   0  0  0  0  0  0  0  0  0  0  0  0
   -8.5303   -3.7173   -1.3357 H   0  0  0  0  0  0  0  0  0  0  0  0
   -6.6289   -5.0140    1.8536 H   0  0  0  0  0  0  0  0  0  0  0  0
   -7.5949   -3.5148    1.6335 H   0  0  0  0  0  0  0  0  0  0  0  0
   -4.6473   -4.0371    1.2414 H   0  0  0  0  0  0  0  0  0  0  0  0
   -5.5369   -2.6570    1.9768 H   0  0  0  0  0  0  0  0  0  0  0  0
  1  2  1  0
  2  3  1  0
  3  4  1  0
  4  5  1  0
  5  6  1  0
  6  7  1  0
  7  8  1  0
  8  9  2  0
  9 10  1  0
 10 11  2  0
 11 12  1  0
 12 13  2  0
 12 14  1  0
 14 15  2  0
 15 16  1  0
 16 17  2  0
 17 18  1  0
 18 19  1  0
 19 20  2  0
 19 21  1  0
 21 22  1  0
 22 23  2  0
 23 24  1  0
 24 25  2  0
 25 26  1  0
 26 27  2  0
 25 28  1  0
 28 29  1  0
 28 30  1  0
 28 31  1  0
 31 32  3  0
 17 33  1  0
 33 34  2  0
 10 35  1  0
 35 36  1  0
 36 37  1  0
 37 38  1  0
 38 39  1  0
 39 40  1  0
  7  2  1  0
 13  8  1  0
 34 14  1  0
 40 35  1  0
 27 22  1  0
  1 41  1  0
  1 42  1  0
  1 43  1  0
  2 44  1  1
  3 45  1  0
  3 46  1  0
  5 47  1  0
  5 48  1  0
  6 49  1  0
  6 50  1  0
 15 51  1  0
 16 52  1  0
 18 53  1  0
 21 54  1  0
 23 55  1  0
 24 56  1  0
 26 57  1  0
 27 58  1  0
 29 59  1  0
 29 60  1  0
 29 61  1  0
 30 62  1  0
 30 63  1  0
 30 64  1  0
 33 65  1  0
 34 66  1  0
 35 67  1  0
 36 68  1  0
 36 69  1  0
 37 70  1  0
 37 71  1  0
 39 72  1  0
 39 73  1  0
 40 74  1  0
 40 75  1  0
M  END
$$$$
[H]OC(=O)[C@@]([H])(N([H])C(=O)[C@@]([H])(N([H])C(=O)[C@@]([H])(N([H])C(=O)[C@@]([H])(N([H])C(=O)c1c([H])c([H])c(S(=O)(=O)N([H])[H])c([H])c1[H])C([H])([H])c1c([H])c([H])c([H])c([H])c1[H])C([H])([H])c1c([H])c([H])c([H])c([H])c1[H])C([H])([H])c1c([H])c([H])c([H])c([H])c1[H])C([H])([H])c1c([H])c([H])c([H])c([H])c1[H]
     RDKit          3D

100104  0  0  0  0  0  0  0  0999 V2000
   12.4162    1.3421    2.3234 N   0  0  0  0  0  0  0  0  0  0  0  0
   11.1820    0.4021    3.0891 S   0  0  0  0  0  0  0  0  0  0  0  0
   11.4959   -1.0424    2.8410 O   0  0  0  0  0  0  0  0  0  0  0  0
   11.1779    0.6198    4.5801 O   0  0  0  0  0  0  0  0  0  0  0  0
    9.6200    0.8248    2.4072 C   0  0  0  0  0  0  0  0  0  0  0  0
    9.1470    0.1234    1.3201 C   0  0  0  0  0  0  0  0  0  0  0  0
    7.9252    0.4563    0.8027 C   0  0  0  0  0  0  0  0  0  0  0  0
    7.1637    1.4633    1.3346 C   0  0  0  0  0  0  0  0  0  0  0  0
    7.6762    2.1498    2.4330 C   0  0  0  0  0  0  0  0  0  0  0  0
    8.9001    1.8375    2.9736 C   0  0  0  0  0  0  0  0  0  0  0  0
    5.8371    1.8154    0.7946 C   0  0  0  0  0  0  0  0  0  0  0  0
    5.2630    2.8062    1.3121 O   0  0  0  0  0  0  0  0  0  0  0  0
    5.2208    1.0946   -0.2459 N   0  0  0  0  0  0  0  0  0  0  0  0
    3.8899    1.4904   -0.7362 C   0  0  1  0  0  0  0  0  0  0  0  0
    3.9460    1.8255   -2.2052 C   0  0  0  0  0  0  0  0  0  0  0  0
    4.3845    0.7359   -3.0582 C   0  0  0  0  0  0  0  0  0  0  0  0
    5.7071    0.5386   -3.3345 C   0  0  0  0  0  0  0  0  0  0  0  0
    6.1713   -0.4785   -4.1362 C   0  0  0  0  0  0  0  0  0  0  0  0
    5.2370   -1.3548   -4.6969 C   0  0  0  0  0  0  0  0  0  0  0  0
    3.8846   -1.1754   -4.4315 C   0  0  0  0  0  0  0  0  0  0  0  0
    3.4636   -0.1260   -3.6097 C   0  0  0  0  0  0  0  0  0  0  0  0
    2.8905    0.4746   -0.4117 C   0  0  0  0  0  0  0  0  0  0  0  0
    3.1934   -0.7330   -0.4803 O   0  0  0  0  0  0  0  0  0  0  0  0
    1.5909    0.8253   -0.0162 N   0  0  0  0  0  0  0  0  0  0  0  0
    0.5823   -0.2452    0.3196 C   0  0  1  0  0  0  0  0  0  0  0  0
    0.7558   -0.5272    1.7728 C   0  0  0  0  0  0  0  0  0  0  0  0
   -0.0845   -1.5622    2.3681 C   0  0  0  0  0  0  0  0  0  0  0  0
    0.2270   -2.9071    2.2461 C   0  0  0  0  0  0  0  0  0  0  0  0
   -0.5097   -3.9015    2.8520 C   0  0  0  0  0  0  0  0  0  0  0  0
   -1.6140   -3.5876    3.6222 C   0  0  0  0  0  0  0  0  0  0  0  0
   -1.9372   -2.2532    3.7530 C   0  0  0  0  0  0  0  0  0  0  0  0
   -1.1885   -1.2765    3.1405 C   0  0  0  0  0  0  0  0  0  0  0  0
   -0.6527    0.2068   -0.2254 C   0  0  0  0  0  0  0  0  0  0  0  0
   -0.6558    1.3703   -0.7962 O   0  0  0  0  0  0  0  0  0  0  0  0
   -1.8913   -0.4378   -0.2423 N   0  0  0  0  0  0  0  0  0  0  0  0
   -3.0807    0.1736   -0.8880 C   0  0  1  0  0  0  0  0  0  0  0  0
   -3.4564   -0.6127   -2.0795 C   0  0  0  0  0  0  0  0  0  0  0  0
   -4.6023   -0.1725   -2.8810 C   0  0  0  0  0  0  0  0  0  0  0  0
   -5.8892   -0.6875   -2.7757 C   0  0  0  0  0  0  0  0  0  0  0  0
   -6.9357   -0.2360   -3.5473 C   0  0  0  0  0  0  0  0  0  0  0  0
   -6.7651    0.7603   -4.4755 C   0  0  0  0  0  0  0  0  0  0  0  0
   -5.5057    1.2875   -4.6029 C   0  0  0  0  0  0  0  0  0  0  0  0
   -4.4533    0.8471   -3.8411 C   0  0  0  0  0  0  0  0  0  0  0  0
   -4.0801    0.4385    0.1419 C   0  0  0  0  0  0  0  0  0  0  0  0
   -3.8500   -0.0922    1.2884 O   0  0  0  0  0  0  0  0  0  0  0  0
   -5.2494    1.2257   -0.0168 N   0  0  0  0  0  0  0  0  0  0  0  0
   -6.2660    1.5604    0.8786 C   0  0  1  0  0  0  0  0  0  0  0  0
   -6.7964    0.5145    1.7879 C   0  0  0  0  0  0  0  0  0  0  0  0
   -7.4274   -0.6091    1.0918 C   0  0  0  0  0  0  0  0  0  0  0  0
   -8.7579   -0.4017    0.6906 C   0  0  0  0  0  0  0  0  0  0  0  0
   -9.4791   -1.4018    0.0862 C   0  0  0  0  0  0  0  0  0  0  0  0
   -8.9332   -2.6592   -0.1564 C   0  0  0  0  0  0  0  0  0  0  0  0
   -7.6385   -2.8461    0.2392 C   0  0  0  0  0  0  0  0  0  0  0  0
   -6.9068   -1.8456    0.8470 C   0  0  0  0  0  0  0  0  0  0  0  0
   -5.9361    2.7496    1.7301 C   0  0  0  0  0  0  0  0  0  0  0  0
   -6.8525    3.1641    2.6689 O   0  0  0  0  0  0  0  0  0  0  0  0
   -4.8631    3.3342    1.5830 O   0  0  0  0  0  0  0  0  0  0  0  0
   13.3137    0.7960    2.2884 H   0  0  0  0  0  0  0  0  0  0  0  0
   12.1130    1.4456    1.3255 H   0  0  0  0  0  0  0  0  0  0  0  0
    9.7495   -0.6920    0.8818 H   0  0  0  0  0  0  0  0  0  0  0  0
    7.5544   -0.0857   -0.0442 H   0  0  0  0  0  0  0  0  0  0  0  0
    7.0660    2.9567    2.8576 H   0  0  0  0  0  0  0  0  0  0  0  0
    9.2852    2.3932    3.8436 H   0  0  0  0  0  0  0  0  0  0  0  0
    5.6797    0.2845   -0.6797 H   0  0  0  0  0  0  0  0  0  0  0  0
    3.6271    2.4149   -0.1950 H   0  0  0  0  0  0  0  0  0  0  0  0
    4.5704    2.7438   -2.3071 H   0  0  0  0  0  0  0  0  0  0  0  0
    2.9146    2.1164   -2.4984 H   0  0  0  0  0  0  0  0  0  0  0  0
    6.4169    1.2182   -2.8968 H   0  0  0  0  0  0  0  0  0  0  0  0
    7.2358   -0.5662   -4.3051 H   0  0  0  0  0  0  0  0  0  0  0  0
    5.6328   -2.1333   -5.3144 H   0  0  0  0  0  0  0  0  0  0  0  0
    3.1913   -1.8730   -4.8836 H   0  0  0  0  0  0  0  0  0  0  0  0
    2.4041   -0.0399   -3.4422 H   0  0  0  0  0  0  0  0  0  0  0  0
    1.3329    1.8272    0.0397 H   0  0  0  0  0  0  0  0  0  0  0  0
    0.9251   -1.1837   -0.2000 H   0  0  0  0  0  0  0  0  0  0  0  0
    0.7304    0.4107    2.3915 H   0  0  0  0  0  0  0  0  0  0  0  0
    1.8247   -0.9195    1.8685 H   0  0  0  0  0  0  0  0  0  0  0  0
    1.1073   -3.1344    1.6307 H   0  0  0  0  0  0  0  0  0  0  0  0
   -0.2445   -4.9397    2.7388 H   0  0  0  0  0  0  0  0  0  0  0  0
   -2.2017   -4.3729    4.1044 H   0  0  0  0  0  0  0  0  0  0  0  0
   -2.8055   -1.9976    4.3587 H   0  0  0  0  0  0  0  0  0  0  0  0
   -1.4815   -0.2202    3.2683 H   0  0  0  0  0  0  0  0  0  0  0  0
   -2.0763   -1.3683    0.1710 H   0  0  0  0  0  0  0  0  0  0  0  0
   -2.6790    1.1663   -1.2804 H   0  0  0  0  0  0  0  0  0  0  0  0
   -2.5766   -0.8563   -2.7352 H   0  0  0  0  0  0  0  0  0  0  0  0
   -3.7340   -1.6511   -1.6883 H   0  0  0  0  0  0  0  0  0  0  0  0
   -6.0536   -1.4683   -2.0755 H   0  0  0  0  0  0  0  0  0  0  0  0
   -7.9502   -0.6364   -3.4669 H   0  0  0  0  0  0  0  0  0  0  0  0
   -7.6061    1.1180   -5.0881 H   0  0  0  0  0  0  0  0  0  0  0  0
   -5.3745    2.0801   -5.3420 H   0  0  0  0  0  0  0  0  0  0  0  0
   -3.4969    1.2894   -3.9787 H   0  0  0  0  0  0  0  0  0  0  0  0
   -5.3298    1.6605   -0.9997 H   0  0  0  0  0  0  0  0  0  0  0  0
   -7.2285    1.8714    0.2841 H   0  0  0  0  0  0  0  0  0  0  0  0
   -5.9476    0.1581    2.4298 H   0  0  0  0  0  0  0  0  0  0  0  0
   -7.5752    0.9895    2.4850 H   0  0  0  0  0  0  0  0  0  0  0  0
   -9.2292    0.5489    0.8521 H   0  0  0  0  0  0  0  0  0  0  0  0
  -10.5158   -1.2297   -0.2227 H   0  0  0  0  0  0  0  0  0  0  0  0
   -9.5598   -3.4091   -0.6402 H   0  0  0  0  0  0  0  0  0  0  0  0
   -7.1975   -3.8364    0.0522 H   0  0  0  0  0  0  0  0  0  0  0  0
   -5.8871   -2.0581    1.1426 H   0  0  0  0  0  0  0  0  0  0  0  0
   -6.6144    3.8965    3.3412 H   0  0  0  0  0  0  0  0  0  0  0  0
  1  2  1  0
  2  3  2  0
  2  4  2  0
  2  5  1  0
  5  6  2  0
  6  7  1  0
  7  8  2  0
  8  9  1  0
  9 10  2  0
  8 11  1  0
 11 12  2  0
 11 13  1  0
 13 14  1  0
 14 15  1  0
 15 16  1  0
 16 17  2  0
 17 18  1  0
 18 19  2  0
 19 20  1  0
 20 21  2  0
 14 22  1  0
 22 23  2  0
 22 24  1  0
 24 25  1  0
 25 26  1  0
 26 27  1  0
 27 28  2  0
 28 29  1  0
 29 30  2  0
 30 31  1  0
 31 32  2  0
 25 33  1  0
 33 34  2  0
 33 35  1  0
 35 36  1  0
 36 37  1  0
 37 38  1  0
 38 39  2  0
 39 40  1  0
 40 41  2  0
 41 42  1  0
 42 43  2  0
 36 44  1  0
 44 45  2  0
 44 46  1  0
 46 47  1  0
 47 48  1  0
 48 49  1  0
 49 50  2  0
 50 51  1  0
 51 52  2  0
 52 53  1  0
 53 54  2  0
 47 55  1  0
 55 56  1  0
 55 57  2  0
 10  5  1  0
 21 16  1  0
 32 27  1  0
 43 38  1  0
 54 49  1  0
  1 58  1  0
  1 59  1  0
  6 60  1  0
  7 61  1  0
  9 62  1  0
 10 63  1  0
 13 64  1  0
 14 65  1  1
 15 66  1  0
 15 67  1  0
 17 68  1  0
 18 69  1  0
 19 70  1  0
 20 71  1  0
 21 72  1  0
 24 73  1  0
 25 74  1  6
 26 75  1  0
 26 76  1  0
 28 77  1  0
 29 78  1  0
 30 79  1  0
 31 80  1  0
 32 81  1  0
 35 82  1  0
 36 83  1  6
 37 84  1  0
 37 85  1  0
 39 86  1  0
 40 87  1  0
 41 88  1  0
 42 89  1  0
 43 90  1  0
 46 91  1  0
 47 92  1  6
 48 93  1  0
 48 94  1  0
 50 95  1  0
 51 96  1  0
 52 97  1  0
 53 98  1  0
 54 99  1  0
 56100  1  0
M  END
$$$$
[H]N=C(N([H])[H])N([H])C([H])([H])C([H])([H])C([H])([H])[C@@]([H])(C(=O)N1C([H])([H])C([H])([H])C([H])([H])[C@@]1([H])C(=O)N1C([H])([H])C([H])([H])C([H])([H])C1([H])[H])N([H])C(=O)[C@@]1([H])N([H])C([H])([H])c2c([H])c([H])c([H])c([H])c2C1([H])[H]
     RDKit          3D

 72 75  0  0  0  0  0  0  0  0999 V2000
   -1.9116    6.0698    0.2669 N   0  0  0  0  0  0  0  0  0  0  0  0
   -0.6311    6.6649    0.2352 C   0  0  0  0  0  0  0  0  0  0  0  0
   -0.5496    7.9669    0.1635 N   0  0  0  0  0  0  0  0  0  0  0  0
    0.5440    5.9146    0.2832 N   0  0  0  0  0  0  0  0  0  0  0  0
    0.9173    4.7441   -0.3848 C   0  0  0  0  0  0  0  0  0  0  0  0
    0.1161    3.4986   -0.0389 C   0  0  0  0  0  0  0  0  0  0  0  0
    0.8865    2.3185   -0.6365 C   0  0  0  0  0  0  0  0  0  0  0  0
    0.3177    1.0084   -0.2618 C   0  0  2  0  0  0  0  0  0  0  0  0
    1.2064   -0.1127   -0.7437 N   0  0  0  0  0  0  0  0  0  0  0  0
    2.3622   -0.5125   -0.0600 C   0  0  0  0  0  0  0  0  0  0  0  0
    2.8273    0.0813    0.9194 O   0  0  0  0  0  0  0  0  0  0  0  0
    3.0467   -1.7599   -0.5794 C   0  0  2  0  0  0  0  0  0  0  0  0
    3.8168   -2.3126    0.6575 C   0  0  0  0  0  0  0  0  0  0  0  0
    5.2781   -2.1819    0.5164 C   0  0  0  0  0  0  0  0  0  0  0  0
    6.0948   -2.7982    1.4391 C   0  0  0  0  0  0  0  0  0  0  0  0
    7.4993   -2.7442    1.3493 C   0  0  0  0  0  0  0  0  0  0  0  0
    8.0860   -2.0839    0.3390 C   0  0  0  0  0  0  0  0  0  0  0  0
    7.2859   -1.4460   -0.6218 C   0  0  0  0  0  0  0  0  0  0  0  0
    5.9244   -1.5126   -0.4977 C   0  0  0  0  0  0  0  0  0  0  0  0
    5.0650   -0.8019   -1.5106 C   0  0  0  0  0  0  0  0  0  0  0  0
    3.9053   -1.5536   -1.6390 N   0  0  0  0  0  0  0  0  0  0  0  0
   -0.9413    0.5389   -0.9163 C   0  0  0  0  0  0  0  0  0  0  0  0
   -0.8773    0.3805   -2.1731 O   0  0  0  0  0  0  0  0  0  0  0  0
   -2.0803    0.2396   -0.1611 N   0  0  0  0  0  0  0  0  0  0  0  0
   -2.4752    0.6532    1.1390 C   0  0  0  0  0  0  0  0  0  0  0  0
   -2.1887   -0.6380    1.9203 C   0  0  0  0  0  0  0  0  0  0  0  0
   -2.3417   -1.7258    0.8725 C   0  0  0  0  0  0  0  0  0  0  0  0
   -2.8675   -0.9953   -0.3977 C   0  0  1  0  0  0  0  0  0  0  0  0
   -4.2377   -0.9887   -0.5908 C   0  0  0  0  0  0  0  0  0  0  0  0
   -4.8061    0.2301   -0.5783 O   0  0  0  0  0  0  0  0  0  0  0  0
   -5.1764   -1.9865   -0.7744 N   0  0  0  0  0  0  0  0  0  0  0  0
   -6.6036   -1.8717   -0.9304 C   0  0  0  0  0  0  0  0  0  0  0  0
   -7.1786   -3.1792   -0.4247 C   0  0  0  0  0  0  0  0  0  0  0  0
   -5.9678   -3.9158    0.1241 C   0  0  0  0  0  0  0  0  0  0  0  0
   -4.9052   -3.4484   -0.8812 C   0  0  0  0  0  0  0  0  0  0  0  0
   -2.7228    6.5614   -0.2007 H   0  0  0  0  0  0  0  0  0  0  0  0
   -2.0657    5.1733    0.7384 H   0  0  0  0  0  0  0  0  0  0  0  0
    0.3426    8.4558    0.1393 H   0  0  0  0  0  0  0  0  0  0  0  0
    1.2775    6.3270    0.9690 H   0  0  0  0  0  0  0  0  0  0  0  0
    0.8789    4.8594   -1.5101 H   0  0  0  0  0  0  0  0  0  0  0  0
    1.9763    4.4709   -0.1205 H   0  0  0  0  0  0  0  0  0  0  0  0
   -0.0251    3.4574    1.0333 H   0  0  0  0  0  0  0  0  0  0  0  0
   -0.8785    3.5885   -0.5725 H   0  0  0  0  0  0  0  0  0  0  0  0
    1.9200    2.4317   -0.2041 H   0  0  0  0  0  0  0  0  0  0  0  0
    0.9157    2.4590   -1.7463 H   0  0  0  0  0  0  0  0  0  0  0  0
    0.3354    0.9120    0.8332 H   0  0  0  0  0  0  0  0  0  0  0  0
    0.9561   -0.5659   -1.6416 H   0  0  0  0  0  0  0  0  0  0  0  0
    2.2488   -2.4750   -0.7726 H   0  0  0  0  0  0  0  0  0  0  0  0
    3.4657   -1.7862    1.5481 H   0  0  0  0  0  0  0  0  0  0  0  0
    3.5824   -3.3895    0.7737 H   0  0  0  0  0  0  0  0  0  0  0  0
    5.7022   -3.3367    2.2727 H   0  0  0  0  0  0  0  0  0  0  0  0
    8.1132   -3.2364    2.0895 H   0  0  0  0  0  0  0  0  0  0  0  0
    9.1711   -2.0075    0.2055 H   0  0  0  0  0  0  0  0  0  0  0  0
    7.7124   -0.9168   -1.4591 H   0  0  0  0  0  0  0  0  0  0  0  0
    5.6312   -0.8664   -2.5059 H   0  0  0  0  0  0  0  0  0  0  0  0
    4.9632    0.2510   -1.2081 H   0  0  0  0  0  0  0  0  0  0  0  0
    3.3913   -1.3970   -2.5109 H   0  0  0  0  0  0  0  0  0  0  0  0
   -1.8518    1.4797    1.5473 H   0  0  0  0  0  0  0  0  0  0  0  0
   -3.5189    0.8811    1.3026 H   0  0  0  0  0  0  0  0  0  0  0  0
   -1.1471   -0.5773    2.3291 H   0  0  0  0  0  0  0  0  0  0  0  0
   -2.8843   -0.7297    2.7388 H   0  0  0  0  0  0  0  0  0  0  0  0
   -1.2817   -1.9997    0.5991 H   0  0  0  0  0  0  0  0  0  0  0  0
   -2.9564   -2.5153    1.2060 H   0  0  0  0  0  0  0  0  0  0  0  0
   -2.3651   -1.5286   -1.2833 H   0  0  0  0  0  0  0  0  0  0  0  0
   -6.8067   -1.8351   -2.0412 H   0  0  0  0  0  0  0  0  0  0  0  0
   -7.0485   -1.0102   -0.4188 H   0  0  0  0  0  0  0  0  0  0  0  0
   -7.9845   -3.0264    0.2990 H   0  0  0  0  0  0  0  0  0  0  0  0
   -7.5411   -3.8004   -1.3052 H   0  0  0  0  0  0  0  0  0  0  0  0
   -6.0887   -5.0167    0.1161 H   0  0  0  0  0  0  0  0  0  0  0  0
   -5.7465   -3.4770    1.0956 H   0  0  0  0  0  0  0  0  0  0  0  0
   -5.2174   -3.8483   -1.8702 H   0  0  0  0  0  0  0  0  0  0  0  0
   -3.8935   -3.7058   -0.5882 H   0  0  0  0  0  0  0  0  0  0  0  0
  1  2  1  0
  2  3  2  3
  2  4  1  0
  4  5  1  0
  5  6  1  0
  6  7  1  0
  7  8  1  0
  8  9  1  0
  9 10  1  0
 10 11  2  0
 10 12  1  0
 12 13  1  0
 13 14  1  0
 14 15  2  0
 15 16  1  0
 16 17  2  0
 17 18  1  0
 18 19  2  0
 19 20  1  0
 20 21  1  0
  8 22  1  0
 22 23  2  0
 22 24  1  0
 24 25  1  0
 25 26  1  0
 26 27  1  0
 27 28  1  0
 28 29  1  0
 29 30  2  0
 29 31  1  0
 31 32  1  0
 32 33  1  0
 33 34  1  0
 34 35  1  0
 21 12  1  0
 28 24  1  0
 35 31  1  0
 19 14  1  0
  1 36  1  0
  1 37  1  0
  3 38  1  0
  4 39  1  0
  5 40  1  0
  5 41  1  0
  6 42  1  0
  6 43  1  0
  7 44  1  0
  7 45  1  0
  8 46  1  1
  9 47  1  0
 12 48  1  6
 13 49  1  0
 13 50  1  0
 15 51  1  0
 16 52  1  0
 17 53  1  0
 18 54  1  0
 20 55  1  0
 20 56  1  0
 21 57  1  0
 25 58  1  0
 25 59  1  0
 26 60  1  0
 26 61  1  0
 27 62  1  0
 27 63  1  0
 28 64  1  6
 32 65  1  0
 32 66  1  0
 33 67  1  0
 33 68  1  0
 34 69  1  0
 34 70  1  0
 35 71  1  0
 35 72  1  0
M  END
$$$$
[H]O[C@@]1([H])C([H])([H])C([H])([H])[C@]2([H])[C@]1(C([H])([H])[H])C([H])([H])C([H])([H])[C@]1([H])[C@@]3(C([H])([H])[H])C(=C([H])C(=O)C([H])([H])C3([H])[H])C([H])([H])C([H])([H])[C@]12[H]
     RDKit          3D

 49 52  0  0  0  0  0  0  0  0999 V2000
    2.4635    1.3696    0.9946 C   0  0  0  0  0  0  0  0  0  0  0  0
    2.3057    0.6199   -0.2813 C   0  0  2  0  0  0  0  0  0  0  0  0
    1.5501    1.3576   -1.3464 C   0  0  0  0  0  0  0  0  0  0  0  0
    0.1081    1.4425   -0.8922 C   0  0  0  0  0  0  0  0  0  0  0  0
   -0.4952    0.0819   -0.7343 C   0  0  1  0  0  0  0  0  0  0  0  0
    0.2476   -0.6537    0.3796 C   0  0  1  0  0  0  0  0  0  0  0  0
   -0.2601   -2.0916    0.5023 C   0  0  0  0  0  0  0  0  0  0  0  0
   -1.7290   -2.2018    0.6696 C   0  0  0  0  0  0  0  0  0  0  0  0
   -2.4830   -0.9898    0.2943 C   0  0  0  0  0  0  0  0  0  0  0  0
   -3.7444   -0.8997    0.7416 C   0  0  0  0  0  0  0  0  0  0  0  0
   -4.5744    0.2523    0.4302 C   0  0  0  0  0  0  0  0  0  0  0  0
   -5.8127    0.1508    0.4519 O   0  0  0  0  0  0  0  0  0  0  0  0
   -3.9319    1.5256    0.0930 C   0  0  0  0  0  0  0  0  0  0  0  0
   -2.4200    1.4162    0.0814 C   0  0  0  0  0  0  0  0  0  0  0  0
   -1.9735    0.1074   -0.5200 C   0  0  1  0  0  0  0  0  0  0  0  0
   -2.6157   -0.0255   -1.9077 C   0  0  0  0  0  0  0  0  0  0  0  0
    1.6571   -0.7469   -0.0869 C   0  0  2  0  0  0  0  0  0  0  0  0
    2.6178   -1.3943    0.8227 C   0  0  0  0  0  0  0  0  0  0  0  0
    3.9727   -0.9314    0.2908 C   0  0  0  0  0  0  0  0  0  0  0  0
    3.6732    0.1505   -0.7313 C   0  0  2  0  0  0  0  0  0  0  0  0
    4.6121    1.1524   -0.7496 O   0  0  0  0  0  0  0  0  0  0  0  0
    3.5227    1.3184    1.3845 H   0  0  0  0  0  0  0  0  0  0  0  0
    1.8292    1.0301    1.8208 H   0  0  0  0  0  0  0  0  0  0  0  0
    2.2954    2.4710    0.8216 H   0  0  0  0  0  0  0  0  0  0  0  0
    1.9518    2.4060   -1.3607 H   0  0  0  0  0  0  0  0  0  0  0  0
    1.6732    0.8373   -2.2948 H   0  0  0  0  0  0  0  0  0  0  0  0
   -0.4368    2.0389   -1.6536 H   0  0  0  0  0  0  0  0  0  0  0  0
    0.1216    1.9983    0.0779 H   0  0  0  0  0  0  0  0  0  0  0  0
   -0.2601   -0.4913   -1.6632 H   0  0  0  0  0  0  0  0  0  0  0  0
    0.1361   -0.1279    1.3480 H   0  0  0  0  0  0  0  0  0  0  0  0
    0.0977   -2.6149   -0.4143 H   0  0  0  0  0  0  0  0  0  0  0  0
    0.2444   -2.5220    1.3813 H   0  0  0  0  0  0  0  0  0  0  0  0
   -2.0894   -3.0185   -0.0229 H   0  0  0  0  0  0  0  0  0  0  0  0
   -1.9923   -2.5654    1.6944 H   0  0  0  0  0  0  0  0  0  0  0  0
   -4.1588   -1.6849    1.3394 H   0  0  0  0  0  0  0  0  0  0  0  0
   -4.1871    2.2466    0.9240 H   0  0  0  0  0  0  0  0  0  0  0  0
   -4.3348    2.0016   -0.8219 H   0  0  0  0  0  0  0  0  0  0  0  0
   -2.0846    1.4774    1.1403 H   0  0  0  0  0  0  0  0  0  0  0  0
   -2.0379    2.3064   -0.4288 H   0  0  0  0  0  0  0  0  0  0  0  0
   -1.9040    0.3240   -2.6836 H   0  0  0  0  0  0  0  0  0  0  0  0
   -2.8129   -1.1041   -2.1378 H   0  0  0  0  0  0  0  0  0  0  0  0
   -3.5253    0.5595   -2.0119 H   0  0  0  0  0  0  0  0  0  0  0  0
    1.6740   -1.2531   -1.0647 H   0  0  0  0  0  0  0  0  0  0  0  0
    2.5491   -2.4993    0.8658 H   0  0  0  0  0  0  0  0  0  0  0  0
    2.5279   -1.0486    1.8830 H   0  0  0  0  0  0  0  0  0  0  0  0
    4.4352   -1.8169   -0.2121 H   0  0  0  0  0  0  0  0  0  0  0  0
    4.6461   -0.5983    1.0884 H   0  0  0  0  0  0  0  0  0  0  0  0
    3.5803   -0.3701   -1.7203 H   0  0  0  0  0  0  0  0  0  0  0  0
    5.3713    1.0080   -0.1232 H   0  0  0  0  0  0  0  0  0  0  0  0
  2  1  1  1
  2  3  1  0
  3  4  1  0
  4  5  1  0
  5  6  1  0
  6  7  1  0
  7  8  1  0
  8  9  1  0
  9 10  2  0
 10 11  1  0
 11 12  2  0
 11 13  1  0
 13 14  1  0
 14 15  1  0
 15 16  1  6
  6 17  1  0
 17 18  1  0
 18 19  1  0
 19 20  1  0
 20 21  1  0
 17  2  1  0
 20  2  1  0
 15  5  1  0
 15  9  1  0
  1 22  1  0
  1 23  1  0
  1 24  1  0
  3 25  1  0
  3 26  1  0
  4 27  1  0
  4 28  1  0
  5 29  1  6
  6 30  1  1
  7 31  1  0
  7 32  1  0
  8 33  1  0
  8 34  1  0
 10 35  1  0
 13 36  1  0
 13 37  1  0
 14 38  1  0
 14 39  1  0
 16 40  1  0
 16 41  1  0
 16 42  1  0
 17 43  1  6
 18 44  1  0
 18 45  1  0
 19 46  1  0
 19 47  1  0
 20 48  1  6
 21 49  1  0
M  END
$$$$
[H]OC(=O)C([H])([H])C([H])([H])[C@@]([H])(C(=O)N([H])[C@]([H])(C(=O)O[H])C([H])([H])c1c([H])c([H])c([H])c([H])c1[H])N([H])C(=O)[C@@]([H])(N([H])C(=O)[C@@]([H])(N([H])C(=O)[C@@]([H])(N([H])C(=O)[C@@]([H])(N([H])C(=O)c1c(O[H])c2c([H])c([H])c([H])c([H])c2n1[H])C([H])([H])c1c([H])c([H])c([H])c([H])c1[H])C([H])([H])C([H])(C([H])([H])[H])C([H])([H])[H])C([H])([H])C(=O)O[H])C([H])(C([H])([H])[H])C([H])([H])[H]
     RDKit          3D

124127  0  0  0  0  0  0  0  0999 V2000
   -4.7135    1.3153    3.6281 C   0  0  0  0  0  0  0  0  0  0  0  0
   -4.2141    0.2628    2.6126 C   0  0  0  0  0  0  0  0  0  0  0  0
   -5.0341   -0.9485    2.8659 C   0  0  0  0  0  0  0  0  0  0  0  0
   -4.2262    0.8957    1.3004 C   0  0  0  0  0  0  0  0  0  0  0  0
   -3.7697    0.0504    0.1107 C   0  0  2  0  0  0  0  0  0  0  0  0
   -4.6532   -1.0912   -0.0360 N   0  0  0  0  0  0  0  0  0  0  0  0
   -5.8354   -0.8693   -0.8101 C   0  0  0  0  0  0  0  0  0  0  0  0
   -6.0107    0.2827   -1.2955 O   0  0  0  0  0  0  0  0  0  0  0  0
   -6.8780   -1.8948   -1.0764 C   0  0  2  0  0  0  0  0  0  0  0  0
   -6.7698   -2.3605   -2.4869 C   0  0  0  0  0  0  0  0  0  0  0  0
   -5.4646   -2.9868   -2.8250 C   0  0  0  0  0  0  0  0  0  0  0  0
   -4.4628   -2.1730   -3.3175 C   0  0  0  0  0  0  0  0  0  0  0  0
   -3.2123   -2.6523   -3.6703 C   0  0  0  0  0  0  0  0  0  0  0  0
   -2.9799   -3.9948   -3.5136 C   0  0  0  0  0  0  0  0  0  0  0  0
   -3.9901   -4.8227   -3.0155 C   0  0  0  0  0  0  0  0  0  0  0  0
   -5.2279   -4.3533   -2.6685 C   0  0  0  0  0  0  0  0  0  0  0  0
   -8.1537   -1.1604   -0.9378 N   0  0  0  0  0  0  0  0  0  0  0  0
   -9.1733   -1.5959   -0.0698 C   0  0  0  0  0  0  0  0  0  0  0  0
   -9.0361   -2.6300    0.6042 O   0  0  0  0  0  0  0  0  0  0  0  0
  -10.4353   -0.8165    0.0597 C   0  0  0  0  0  0  0  0  0  0  0  0
  -10.7151    0.3309   -0.5533 N   0  0  0  0  0  0  0  0  0  0  0  0
  -11.9368    0.7932   -0.1898 C   0  0  0  0  0  0  0  0  0  0  0  0
  -12.6727    1.9099   -0.5205 C   0  0  0  0  0  0  0  0  0  0  0  0
  -13.9209    2.1064    0.0451 C   0  0  0  0  0  0  0  0  0  0  0  0
  -14.4444    1.1793    0.9523 C   0  0  0  0  0  0  0  0  0  0  0  0
  -13.6959    0.0768    1.2664 C   0  0  0  0  0  0  0  0  0  0  0  0
  -12.4408   -0.1323    0.7054 C   0  0  0  0  0  0  0  0  0  0  0  0
  -11.5007   -1.1376    0.8591 C   0  0  0  0  0  0  0  0  0  0  0  0
  -11.6003   -2.2692    1.6697 O   0  0  0  0  0  0  0  0  0  0  0  0
   -2.3504   -0.2622    0.1968 C   0  0  0  0  0  0  0  0  0  0  0  0
   -2.0154   -1.2467    0.9194 O   0  0  0  0  0  0  0  0  0  0  0  0
   -1.3171    0.4504   -0.4631 N   0  0  0  0  0  0  0  0  0  0  0  0
    0.0489    0.0931   -0.3009 C   0  0  1  0  0  0  0  0  0  0  0  0
    0.4523   -1.0752   -1.1863 C   0  0  0  0  0  0  0  0  0  0  0  0
    0.2700   -0.8753   -2.6128 C   0  0  0  0  0  0  0  0  0  0  0  0
    0.6932   -1.8189   -3.5701 O   0  0  0  0  0  0  0  0  0  0  0  0
   -0.2747    0.1482   -3.1035 O   0  0  0  0  0  0  0  0  0  0  0  0
    0.9964    1.1906   -0.4821 C   0  0  0  0  0  0  0  0  0  0  0  0
    0.7619    2.0892   -1.3222 O   0  0  0  0  0  0  0  0  0  0  0  0
    2.2074    1.2891    0.2718 N   0  0  0  0  0  0  0  0  0  0  0  0
    3.1619    2.3451    0.1054 C   0  0  1  0  0  0  0  0  0  0  0  0
    3.1142    3.3179    1.2169 C   0  0  0  0  0  0  0  0  0  0  0  0
    1.7042    3.9194    1.2808 C   0  0  0  0  0  0  0  0  0  0  0  0
    3.4602    2.8000    2.5752 C   0  0  0  0  0  0  0  0  0  0  0  0
    4.5341    1.7782   -0.1649 C   0  0  0  0  0  0  0  0  0  0  0  0
    4.6017    0.5312   -0.3742 O   0  0  0  0  0  0  0  0  0  0  0  0
    5.6651    2.5836   -0.1781 N   0  0  0  0  0  0  0  0  0  0  0  0
    7.0395    2.3937   -0.3992 C   0  0  1  0  0  0  0  0  0  0  0  0
    7.9134    3.4913    0.1456 C   0  0  0  0  0  0  0  0  0  0  0  0
    7.7034    3.6465    1.6506 C   0  0  0  0  0  0  0  0  0  0  0  0
    8.5948    4.7236    2.1369 C   0  0  0  0  0  0  0  0  0  0  0  0
    8.4937    5.1374    3.4514 O   0  0  0  0  0  0  0  0  0  0  0  0
    9.4160    5.2432    1.3720 O   0  0  0  0  0  0  0  0  0  0  0  0
    7.6438    1.0647   -0.3129 C   0  0  0  0  0  0  0  0  0  0  0  0
    7.0465    0.0855   -0.8885 O   0  0  0  0  0  0  0  0  0  0  0  0
    8.8462    0.7046    0.3386 N   0  0  0  0  0  0  0  0  0  0  0  0
    9.3287   -0.6820    0.3090 C   0  0  1  0  0  0  0  0  0  0  0  0
   10.5800   -0.6673   -0.5116 C   0  0  0  0  0  0  0  0  0  0  0  0
   11.2191   -1.9814   -0.7057 C   0  0  0  0  0  0  0  0  0  0  0  0
   10.7801   -2.8012   -1.7608 C   0  0  0  0  0  0  0  0  0  0  0  0
   11.3711   -4.0290   -1.9853 C   0  0  0  0  0  0  0  0  0  0  0  0
   12.4033   -4.5045   -1.2017 C   0  0  0  0  0  0  0  0  0  0  0  0
   12.8318   -3.6848   -0.1616 C   0  0  0  0  0  0  0  0  0  0  0  0
   12.2452   -2.4630    0.0652 C   0  0  0  0  0  0  0  0  0  0  0  0
    9.4375   -1.2371    1.6602 C   0  0  0  0  0  0  0  0  0  0  0  0
    9.9031   -2.4895    1.9788 O   0  0  0  0  0  0  0  0  0  0  0  0
    9.0747   -0.5159    2.6460 O   0  0  0  0  0  0  0  0  0  0  0  0
   -4.5427    0.8745    4.6324 H   0  0  0  0  0  0  0  0  0  0  0  0
   -4.2562    2.2868    3.4717 H   0  0  0  0  0  0  0  0  0  0  0  0
   -5.8179    1.3586    3.4940 H   0  0  0  0  0  0  0  0  0  0  0  0
   -3.1668    0.0376    2.9894 H   0  0  0  0  0  0  0  0  0  0  0  0
   -5.4331   -0.9681    3.9388 H   0  0  0  0  0  0  0  0  0  0  0  0
   -4.5303   -1.9008    2.6605 H   0  0  0  0  0  0  0  0  0  0  0  0
   -5.9602   -0.9131    2.2604 H   0  0  0  0  0  0  0  0  0  0  0  0
   -3.5709    1.7866    1.3158 H   0  0  0  0  0  0  0  0  0  0  0  0
   -5.2409    1.2594    0.9940 H   0  0  0  0  0  0  0  0  0  0  0  0
   -3.9471    0.7093   -0.7606 H   0  0  0  0  0  0  0  0  0  0  0  0
   -4.4901   -2.0290    0.3569 H   0  0  0  0  0  0  0  0  0  0  0  0
   -6.9062   -2.7272   -0.3983 H   0  0  0  0  0  0  0  0  0  0  0  0
   -7.5810   -3.0596   -2.7649 H   0  0  0  0  0  0  0  0  0  0  0  0
   -6.9212   -1.4501   -3.1469 H   0  0  0  0  0  0  0  0  0  0  0  0
   -4.6734   -1.0902   -3.4325 H   0  0  0  0  0  0  0  0  0  0  0  0
   -2.4720   -1.9437   -4.0546 H   0  0  0  0  0  0  0  0  0  0  0  0
   -2.0323   -4.4189   -3.7720 H   0  0  0  0  0  0  0  0  0  0  0  0
   -3.7683   -5.8897   -2.9048 H   0  0  0  0  0  0  0  0  0  0  0  0
   -6.0050   -4.9917   -2.2816 H   0  0  0  0  0  0  0  0  0  0  0  0
   -8.2991   -0.3074   -1.4968 H   0  0  0  0  0  0  0  0  0  0  0  0
  -10.1215    0.8654   -1.2322 H   0  0  0  0  0  0  0  0  0  0  0  0
  -12.2896    2.6347   -1.2106 H   0  0  0  0  0  0  0  0  0  0  0  0
  -14.5035    2.9819   -0.2154 H   0  0  0  0  0  0  0  0  0  0  0  0
  -15.4326    1.3413    1.3960 H   0  0  0  0  0  0  0  0  0  0  0  0
  -14.0738   -0.6598    1.9682 H   0  0  0  0  0  0  0  0  0  0  0  0
  -12.4420   -2.3795    2.2130 H   0  0  0  0  0  0  0  0  0  0  0  0
   -1.5872    1.2460   -1.0713 H   0  0  0  0  0  0  0  0  0  0  0  0
    0.1181   -0.3601    0.7458 H   0  0  0  0  0  0  0  0  0  0  0  0
   -0.0295   -2.0229   -0.8263 H   0  0  0  0  0  0  0  0  0  0  0  0
    1.5446   -1.2377   -0.9855 H   0  0  0  0  0  0  0  0  0  0  0  0
    1.4463   -1.5481   -4.2258 H   0  0  0  0  0  0  0  0  0  0  0  0
    2.3937    0.5524    0.9803 H   0  0  0  0  0  0  0  0  0  0  0  0
    2.8768    2.8912   -0.8330 H   0  0  0  0  0  0  0  0  0  0  0  0
    3.7871    4.1857    0.9733 H   0  0  0  0  0  0  0  0  0  0  0  0
    0.9840    3.0858    1.5252 H   0  0  0  0  0  0  0  0  0  0  0  0
    1.6770    4.6166    2.1338 H   0  0  0  0  0  0  0  0  0  0  0  0
    1.4483    4.4170    0.3438 H   0  0  0  0  0  0  0  0  0  0  0  0
    2.8663    3.3669    3.3540 H   0  0  0  0  0  0  0  0  0  0  0  0
    3.2481    1.7428    2.7441 H   0  0  0  0  0  0  0  0  0  0  0  0
    4.5316    3.0374    2.8714 H   0  0  0  0  0  0  0  0  0  0  0  0
    5.4272    3.6529    0.0045 H   0  0  0  0  0  0  0  0  0  0  0  0
    7.0999    2.5514   -1.5834 H   0  0  0  0  0  0  0  0  0  0  0  0
    8.9988    3.2177    0.0270 H   0  0  0  0  0  0  0  0  0  0  0  0
    7.7944    4.4686   -0.3121 H   0  0  0  0  0  0  0  0  0  0  0  0
    6.6306    3.8850    1.8484 H   0  0  0  0  0  0  0  0  0  0  0  0
    7.9765    2.7333    2.2018 H   0  0  0  0  0  0  0  0  0  0  0  0
    9.2979    5.4448    3.9900 H   0  0  0  0  0  0  0  0  0  0  0  0
    9.4149    1.3936    0.8474 H   0  0  0  0  0  0  0  0  0  0  0  0
    8.5529   -1.2443   -0.2954 H   0  0  0  0  0  0  0  0  0  0  0  0
   10.3178   -0.1932   -1.4879 H   0  0  0  0  0  0  0  0  0  0  0  0
   11.2825    0.0665   -0.0259 H   0  0  0  0  0  0  0  0  0  0  0  0
    9.9755   -2.4212   -2.3656 H   0  0  0  0  0  0  0  0  0  0  0  0
   11.0549   -4.6850   -2.7971 H   0  0  0  0  0  0  0  0  0  0  0  0
   12.8626   -5.4638   -1.3766 H   0  0  0  0  0  0  0  0  0  0  0  0
   13.6432   -4.0574    0.4573 H   0  0  0  0  0  0  0  0  0  0  0  0
   12.5833   -1.8050    0.8804 H   0  0  0  0  0  0  0  0  0  0  0  0
    9.8419   -2.9314    2.8656 H   0  0  0  0  0  0  0  0  0  0  0  0
  1  2  1  0
  2  3  1  0
  2  4  1  0
  4  5  1  0
  5  6  1  0
  6  7  1  0
  7  8  2  0
  7  9  1  0
  9 10  1  0
 10 11  1  0
 11 12  2  0
 12 13  1  0
 13 14  2  0
 14 15  1  0
 15 16  2  0
  9 17  1  0
 17 18  1  0
 18 19  2  0
 18 20  1  0
 20 21  1  0
 21 22  1  0
 22 23  2  0
 23 24  1  0
 24 25  2  0
 25 26  1  0
 26 27  2  0
 27 28  1  0
 28 29  1  0
  5 30  1  0
 30 31  2  0
 30 32  1  0
 32 33  1  0
 33 34  1  0
 34 35  1  0
 35 36  1  0
 35 37  2  0
 33 38  1  0
 38 39  2  0
 38 40  1  0
 40 41  1  0
 41 42  1  0
 42 43  1  0
 42 44  1  0
 41 45  1  0
 45 46  2  0
 45 47  1  0
 47 48  1  0
 48 49  1  0
 49 50  1  0
 50 51  1  0
 51 52  1  0
 51 53  2  0
 48 54  1  0
 54 55  2  0
 54 56  1  0
 56 57  1  0
 57 58  1  0
 58 59  1  0
 59 60  2  0
 60 61  1  0
 61 62  2  0
 62 63  1  0
 63 64  2  0
 57 65  1  0
 65 66  1  0
 65 67  2  0
 16 11  1  0
 28 20  2  0
 64 59  1  0
 27 22  1  0
  1 68  1  0
  1 69  1  0
  1 70  1  0
  2 71  1  0
  3 72  1  0
  3 73  1  0
  3 74  1  0
  4 75  1  0
  4 76  1  0
  5 77  1  6
  6 78  1  0
  9 79  1  1
 10 80  1  0
 10 81  1  0
 12 82  1  0
 13 83  1  0
 14 84  1  0
 15 85  1  0
 16 86  1  0
 17 87  1  0
 21 88  1  0
 23 89  1  0
 24 90  1  0
 25 91  1  0
 26 92  1  0
 29 93  1  0
 32 94  1  0
 33 95  1  1
 34 96  1  0
 34 97  1  0
 36 98  1  0
 40 99  1  0
 41100  1  6
 42101  1  0
 43102  1  0
 43103  1  0
 43104  1  0
 44105  1  0
 44106  1  0
 44107  1  0
 47108  1  0
 48109  1  6
 49110  1  0
 49111  1  0
 50112  1  0
 50113  1  0
 52114  1  0
 56115  1  0
 57116  1  6
 58117  1  0
 58118  1  0
 60119  1  0
 61120  1  0
 62121  1  0
 63122  1  0
 64123  1  0
 66124  1  0
M  END
$$$$
[H]c1c([H])c(S(=O)(=O)C([H])([H])[H])c([H])c([H])c1N([H])c1nc(N([H])C([H])(C([H])([H])[H])C([H])([H])[H])c2c(C([H])([H])[H])nn([H])c2n1
     RDKit          3D

 45 47  0  0  0  0  0  0  0  0999 V2000
   -3.5143   -1.9679   -1.3970 C   0  0  0  0  0  0  0  0  0  0  0  0
   -4.0675   -1.6127   -0.0414 C   0  0  0  0  0  0  0  0  0  0  0  0
   -5.4927   -2.0702    0.0318 C   0  0  0  0  0  0  0  0  0  0  0  0
   -3.9397   -0.1848    0.2478 N   0  0  0  0  0  0  0  0  0  0  0  0
   -2.6421    0.3770    0.2685 C   0  0  0  0  0  0  0  0  0  0  0  0
   -1.5582   -0.3990    0.0276 N   0  0  0  0  0  0  0  0  0  0  0  0
   -0.2823    0.0198    0.0214 C   0  0  0  0  0  0  0  0  0  0  0  0
    0.7408   -0.9001   -0.2670 N   0  0  0  0  0  0  0  0  0  0  0  0
    2.1224   -0.6298   -0.2992 C   0  0  0  0  0  0  0  0  0  0  0  0
    2.9682   -1.4898   -1.0372 C   0  0  0  0  0  0  0  0  0  0  0  0
    4.3262   -1.3253   -1.1103 C   0  0  0  0  0  0  0  0  0  0  0  0
    4.9352   -0.2999   -0.4584 C   0  0  0  0  0  0  0  0  0  0  0  0
    4.1464    0.5493    0.2642 C   0  0  0  0  0  0  0  0  0  0  0  0
    2.7553    0.3968    0.3510 C   0  0  0  0  0  0  0  0  0  0  0  0
    6.6617   -0.0159   -0.4979 S   0  0  0  0  0  0  0  0  0  0  0  0
    7.4943   -0.8528    0.7983 C   0  0  0  0  0  0  0  0  0  0  0  0
    6.8843    1.4652   -0.3340 O   0  0  0  0  0  0  0  0  0  0  0  0
    7.2124   -0.4456   -1.8354 O   0  0  0  0  0  0  0  0  0  0  0  0
   -0.0897    1.3040    0.2747 N   0  0  0  0  0  0  0  0  0  0  0  0
   -1.0992    2.1448    0.5236 C   0  0  0  0  0  0  0  0  0  0  0  0
   -1.1409    3.4786    0.8041 N   0  0  0  0  0  0  0  0  0  0  0  0
   -2.3727    3.8641    0.9744 N   0  0  0  0  0  0  0  0  0  0  0  0
   -3.2096    2.7881    0.8118 C   0  0  0  0  0  0  0  0  0  0  0  0
   -4.6758    2.7933    0.9196 C   0  0  0  0  0  0  0  0  0  0  0  0
   -2.4088    1.7202    0.5311 C   0  0  0  0  0  0  0  0  0  0  0  0
   -4.1578   -2.7295   -1.8642 H   0  0  0  0  0  0  0  0  0  0  0  0
   -2.4867   -2.3820   -1.3565 H   0  0  0  0  0  0  0  0  0  0  0  0
   -3.5719   -1.0587   -2.0453 H   0  0  0  0  0  0  0  0  0  0  0  0
   -3.4906   -2.2155    0.7101 H   0  0  0  0  0  0  0  0  0  0  0  0
   -5.5075   -3.1672    0.1452 H   0  0  0  0  0  0  0  0  0  0  0  0
   -5.9960   -1.8094   -0.9240 H   0  0  0  0  0  0  0  0  0  0  0  0
   -6.0507   -1.5731    0.8498 H   0  0  0  0  0  0  0  0  0  0  0  0
   -4.7835    0.3275    0.4184 H   0  0  0  0  0  0  0  0  0  0  0  0
    0.4711   -1.9207   -0.4839 H   0  0  0  0  0  0  0  0  0  0  0  0
    2.4794   -2.2969   -1.5509 H   0  0  0  0  0  0  0  0  0  0  0  0
    4.9478   -2.0058   -1.6874 H   0  0  0  0  0  0  0  0  0  0  0  0
    4.6061    1.3702    0.7899 H   0  0  0  0  0  0  0  0  0  0  0  0
    2.1984    1.0944    0.9513 H   0  0  0  0  0  0  0  0  0  0  0  0
    6.8960   -1.6761    1.2448 H   0  0  0  0  0  0  0  0  0  0  0  0
    8.4756   -1.2154    0.4095 H   0  0  0  0  0  0  0  0  0  0  0  0
    7.7141   -0.1504    1.6287 H   0  0  0  0  0  0  0  0  0  0  0  0
   -0.2921    4.0901    0.8693 H   0  0  0  0  0  0  0  0  0  0  0  0
   -4.9617    3.8710    1.1259 H   0  0  0  0  0  0  0  0  0  0  0  0
   -5.1742    2.5573   -0.0209 H   0  0  0  0  0  0  0  0  0  0  0  0
   -5.0697    2.1829    1.7681 H   0  0  0  0  0  0  0  0  0  0  0  0
  1  2  1  0
  2  3  1  0
  2  4  1  0
  4  5  1  0
  5  6  2  0
  6  7  1  0
  7  8  1  0
  8  9  1  0
  9 10  2  0
 10 11  1  0
 11 12  2  0
 12 13  1  0
 13 14  2  0
 12 15  1  0
 15 16  1  0
 15 17  2  0
 15 18  2  0
  7 19  2  0
 19 20  1  0
 20 21  1  0
 21 22  1  0
 22 23  2  0
 23 24  1  0
 23 25  1  0
 25  5  1  0
 14  9  1  0
 25 20  2  0
  1 26  1  0
  1 27  1  0
  1 28  1  0
  2 29  1  0
  3 30  1  0
  3 31  1  0
  3 32  1  0
  4 33  1  0
  8 34  1  0
 10 35  1  0
 11 36  1  0
 13 37  1  0
 14 38  1  0
 16 39  1  0
 16 40  1  0
 16 41  1  0
 21 42  1  0
 24 43  1  0
 24 44  1  0
 24 45  1  0
M  END
$$$$
[H]c1c([H])c(OC([H])([H])[H])c([H])c(C2([H])C(C(=O)OC(C([H])([H])[H])(C([H])([H])[H])C([H])([H])[H])=C(C([H])([H])[H])N=C(C([H])([H])[H])C2([H])C(=O)OC([H])([H])[H])c1[H]
     RDKit          3D

 54 55  0  0  0  0  0  0  0  0999 V2000
    2.8186    5.0506   -1.6714 C   0  0  0  0  0  0  0  0  0  0  0  0
    2.4495    4.1060   -0.6685 O   0  0  0  0  0  0  0  0  0  0  0  0
    1.7551    2.9588   -0.9385 C   0  0  0  0  0  0  0  0  0  0  0  0
    1.4230    2.7179   -2.1218 O   0  0  0  0  0  0  0  0  0  0  0  0
    1.4016    2.0050    0.1904 C   0  0  0  0  0  0  0  0  0  0  0  0
    0.6817    0.8261   -0.3220 C   0  0  0  0  0  0  0  0  0  0  0  0
   -0.6977    0.6644    0.2113 C   0  0  0  0  0  0  0  0  0  0  0  0
   -1.5408   -0.4235   -0.3043 C   0  0  0  0  0  0  0  0  0  0  0  0
   -1.0455   -1.1915   -1.1948 O   0  0  0  0  0  0  0  0  0  0  0  0
   -2.8053   -0.6799    0.0889 O   0  0  0  0  0  0  0  0  0  0  0  0
   -3.6516   -1.6970   -0.3651 C   0  0  0  0  0  0  0  0  0  0  0  0
   -4.9715   -1.5621    0.3868 C   0  0  0  0  0  0  0  0  0  0  0  0
   -3.9558   -1.4867   -1.8333 C   0  0  0  0  0  0  0  0  0  0  0  0
   -3.1322   -3.0764   -0.1207 C   0  0  0  0  0  0  0  0  0  0  0  0
   -1.1728    1.4879    1.1363 C   0  0  0  0  0  0  0  0  0  0  0  0
   -2.5497    1.3163    1.6659 C   0  0  0  0  0  0  0  0  0  0  0  0
   -0.4140    2.5781    1.6325 N   0  0  0  0  0  0  0  0  0  0  0  0
    0.7441    2.8123    1.2105 C   0  0  0  0  0  0  0  0  0  0  0  0
    1.4758    3.9758    1.7973 C   0  0  0  0  0  0  0  0  0  0  0  0
    1.4660   -0.3845    0.0257 C   0  0  0  0  0  0  0  0  0  0  0  0
    1.6312   -0.7147    1.3395 C   0  0  0  0  0  0  0  0  0  0  0  0
    2.3654   -1.8339    1.6574 C   0  0  0  0  0  0  0  0  0  0  0  0
    2.9295   -2.6170    0.6867 C   0  0  0  0  0  0  0  0  0  0  0  0
    2.7641   -2.2857   -0.6386 C   0  0  0  0  0  0  0  0  0  0  0  0
    3.3183   -3.0515   -1.6483 O   0  0  0  0  0  0  0  0  0  0  0  0
    4.0694   -4.1952   -1.3408 C   0  0  0  0  0  0  0  0  0  0  0  0
    2.0197   -1.1513   -0.9541 C   0  0  0  0  0  0  0  0  0  0  0  0
    1.9957    5.8119   -1.8139 H   0  0  0  0  0  0  0  0  0  0  0  0
    3.6693    5.6230   -1.2428 H   0  0  0  0  0  0  0  0  0  0  0  0
    3.1165    4.5732   -2.6104 H   0  0  0  0  0  0  0  0  0  0  0  0
    2.4382    1.6699    0.5457 H   0  0  0  0  0  0  0  0  0  0  0  0
    0.5677    0.8728   -1.4407 H   0  0  0  0  0  0  0  0  0  0  0  0
   -4.7633   -1.5087    1.4917 H   0  0  0  0  0  0  0  0  0  0  0  0
   -5.5116   -0.6358    0.0612 H   0  0  0  0  0  0  0  0  0  0  0  0
   -5.5940   -2.4494    0.2333 H   0  0  0  0  0  0  0  0  0  0  0  0
   -4.8351   -2.1271   -2.0833 H   0  0  0  0  0  0  0  0  0  0  0  0
   -3.1307   -1.7664   -2.4948 H   0  0  0  0  0  0  0  0  0  0  0  0
   -4.2965   -0.4360   -1.9550 H   0  0  0  0  0  0  0  0  0  0  0  0
   -2.7015   -3.1576    0.8944 H   0  0  0  0  0  0  0  0  0  0  0  0
   -2.4491   -3.4457   -0.9081 H   0  0  0  0  0  0  0  0  0  0  0  0
   -4.0116   -3.7792   -0.1367 H   0  0  0  0  0  0  0  0  0  0  0  0
   -3.3388    1.5104    0.9191 H   0  0  0  0  0  0  0  0  0  0  0  0
   -2.7176    2.1177    2.4517 H   0  0  0  0  0  0  0  0  0  0  0  0
   -2.6844    0.3755    2.2405 H   0  0  0  0  0  0  0  0  0  0  0  0
    1.2401    4.9336    1.2982 H   0  0  0  0  0  0  0  0  0  0  0  0
    1.1213    4.1192    2.8568 H   0  0  0  0  0  0  0  0  0  0  0  0
    2.5771    3.8508    1.7660 H   0  0  0  0  0  0  0  0  0  0  0  0
    1.2152   -0.1423    2.1344 H   0  0  0  0  0  0  0  0  0  0  0  0
    2.5152   -2.1240    2.6991 H   0  0  0  0  0  0  0  0  0  0  0  0
    3.5155   -3.5090    0.9198 H   0  0  0  0  0  0  0  0  0  0  0  0
    4.5661   -4.5291   -2.2947 H   0  0  0  0  0  0  0  0  0  0  0  0
    4.8259   -4.0379   -0.5515 H   0  0  0  0  0  0  0  0  0  0  0  0
    3.3778   -5.0283   -1.0420 H   0  0  0  0  0  0  0  0  0  0  0  0
    1.9163   -0.9293   -2.0190 H   0  0  0  0  0  0  0  0  0  0  0  0
  1  2  1  0
  2  3  1  0
  3  4  2  0
  3  5  1  0
  5  6  1  0
  6  7  1  0
  7  8  1  0
  8  9  2  0
  8 10  1  0
 10 11  1  0
 11 12  1  0
 11 13  1  0
 11 14  1  0
  7 15  2  0
 15 16  1  0
 15 17  1  0
 17 18  2  0
 18 19  1  0
  6 20  1  0
 20 21  2  0
 21 22  1  0
 22 23  2  0
 23 24  1  0
 24 25  1  0
 25 26  1  0
 24 27  2  0
 18  5  1  0
 27 20  1  0
  1 28  1  0
  1 29  1  0
  1 30  1  0
  5 31  1  0
  6 32  1  0
 12 33  1  0
 12 34  1  0
 12 35  1  0
 13 36  1  0
 13 37  1  0
 13 38  1  0
 14 39  1  0
 14 40  1  0
 14 41  1  0
 16 42  1  0
 16 43  1  0
 16 44  1  0
 19 45  1  0
 19 46  1  0
 19 47  1  0
 21 48  1  0
 22 49  1  0
 23 50  1  0
 26 51  1  0
 26 52  1  0
 26 53  1  0
 27 54  1  0
M  END
$$$$
[H]c1c([H])c(C(=O)N([H])c2c([H])c([H])c(C([H])([H])[H])c(-c3c([H])c(N4C([H])([H])C([H])([H])OC([H])([H])C4([H])[H])nc(N4C([H])([H])C([H])([H])OC([H])([H])C4([H])[H])c3[H])c2[H])c([H])c(C(F)(F)F)c1[H]
     RDKit          3D

 67 71  0  0  0  0  0  0  0  0999 V2000
   -0.7046   -1.3482    2.6698 C   0  0  0  0  0  0  0  0  0  0  0  0
    0.5618   -0.9323    1.9867 C   0  0  0  0  0  0  0  0  0  0  0  0
    1.7569   -1.2182    2.5769 C   0  0  0  0  0  0  0  0  0  0  0  0
    2.9062   -0.8045    1.9857 C   0  0  0  0  0  0  0  0  0  0  0  0
    2.9168   -0.0772    0.7662 C   0  0  0  0  0  0  0  0  0  0  0  0
    4.1630    0.3178    0.2554 N   0  0  0  0  0  0  0  0  0  0  0  0
    4.5675    1.3095   -0.6452 C   0  0  0  0  0  0  0  0  0  0  0  0
    3.8142    2.0860   -1.2291 O   0  0  0  0  0  0  0  0  0  0  0  0
    6.0396    1.3879   -0.8650 C   0  0  0  0  0  0  0  0  0  0  0  0
    6.6668    2.6005   -0.9860 C   0  0  0  0  0  0  0  0  0  0  0  0
    8.0713    2.6838   -1.1000 C   0  0  0  0  0  0  0  0  0  0  0  0
    8.8003    1.4939   -1.0859 C   0  0  0  0  0  0  0  0  0  0  0  0
    8.1970    0.2541   -0.9685 C   0  0  0  0  0  0  0  0  0  0  0  0
    6.7952    0.2500   -0.8595 C   0  0  0  0  0  0  0  0  0  0  0  0
    9.0156   -0.9817   -0.9268 C   0  0  0  0  0  0  0  0  0  0  0  0
    9.8648   -1.0923   -2.0213 F   0  0  0  0  0  0  0  0  0  0  0  0
    9.8528   -0.9565    0.1997 F   0  0  0  0  0  0  0  0  0  0  0  0
    8.1968   -2.0842   -0.7725 F   0  0  0  0  0  0  0  0  0  0  0  0
    1.6893    0.1964    0.1866 C   0  0  0  0  0  0  0  0  0  0  0  0
    0.5453   -0.2128    0.7692 C   0  0  0  0  0  0  0  0  0  0  0  0
   -0.8331   -0.0613    0.2752 C   0  0  0  0  0  0  0  0  0  0  0  0
   -1.5676   -1.2368    0.0074 C   0  0  0  0  0  0  0  0  0  0  0  0
   -2.8903   -1.2422   -0.3174 C   0  0  0  0  0  0  0  0  0  0  0  0
   -3.5107   -0.0527   -0.3851 N   0  0  0  0  0  0  0  0  0  0  0  0
   -2.8548    1.1200   -0.1382 C   0  0  0  0  0  0  0  0  0  0  0  0
   -1.5075    1.1250    0.1929 C   0  0  0  0  0  0  0  0  0  0  0  0
   -3.6481    2.2924   -0.2169 N   0  0  0  0  0  0  0  0  0  0  0  0
   -3.8495    3.1523    0.9201 C   0  0  0  0  0  0  0  0  0  0  0  0
   -4.7953    4.2692    0.5191 C   0  0  0  0  0  0  0  0  0  0  0  0
   -5.8873    3.8917   -0.1863 O   0  0  0  0  0  0  0  0  0  0  0  0
   -5.7587    2.9284   -1.1439 C   0  0  0  0  0  0  0  0  0  0  0  0
   -4.2887    2.6648   -1.4565 C   0  0  0  0  0  0  0  0  0  0  0  0
   -3.6808   -2.4076   -0.5694 N   0  0  0  0  0  0  0  0  0  0  0  0
   -4.8672   -2.6351    0.2766 C   0  0  0  0  0  0  0  0  0  0  0  0
   -5.0478   -4.1369    0.3865 C   0  0  0  0  0  0  0  0  0  0  0  0
   -5.2911   -4.7460   -0.8202 O   0  0  0  0  0  0  0  0  0  0  0  0
   -4.7289   -4.0835   -1.9029 C   0  0  0  0  0  0  0  0  0  0  0  0
   -3.4210   -3.3815   -1.5775 C   0  0  0  0  0  0  0  0  0  0  0  0
   -1.0717   -2.3344    2.3676 H   0  0  0  0  0  0  0  0  0  0  0  0
   -1.5161   -0.5782    2.5402 H   0  0  0  0  0  0  0  0  0  0  0  0
   -0.4866   -1.3748    3.7741 H   0  0  0  0  0  0  0  0  0  0  0  0
    1.8227   -1.7606    3.5328 H   0  0  0  0  0  0  0  0  0  0  0  0
    3.8844   -1.0115    2.4069 H   0  0  0  0  0  0  0  0  0  0  0  0
    4.9935   -0.3011    0.6360 H   0  0  0  0  0  0  0  0  0  0  0  0
    6.0970    3.5223   -1.0031 H   0  0  0  0  0  0  0  0  0  0  0  0
    8.5603    3.6384   -1.1876 H   0  0  0  0  0  0  0  0  0  0  0  0
    9.8974    1.5741   -1.1672 H   0  0  0  0  0  0  0  0  0  0  0  0
    6.3194   -0.6955   -0.7755 H   0  0  0  0  0  0  0  0  0  0  0  0
    1.6430    0.7386   -0.7453 H   0  0  0  0  0  0  0  0  0  0  0  0
   -1.0486   -2.1810    0.0522 H   0  0  0  0  0  0  0  0  0  0  0  0
   -1.0075    2.0686    0.3774 H   0  0  0  0  0  0  0  0  0  0  0  0
   -2.9077    3.6333    1.2323 H   0  0  0  0  0  0  0  0  0  0  0  0
   -4.2594    2.5928    1.7890 H   0  0  0  0  0  0  0  0  0  0  0  0
   -4.1900    5.0905    0.0731 H   0  0  0  0  0  0  0  0  0  0  0  0
   -5.1932    4.6509    1.5184 H   0  0  0  0  0  0  0  0  0  0  0  0
   -6.2475    1.9893   -0.7782 H   0  0  0  0  0  0  0  0  0  0  0  0
   -6.2979    3.2463   -2.0717 H   0  0  0  0  0  0  0  0  0  0  0  0
   -4.1904    1.9067   -2.2508 H   0  0  0  0  0  0  0  0  0  0  0  0
   -3.8864    3.6586   -1.7815 H   0  0  0  0  0  0  0  0  0  0  0  0
   -5.7187   -2.1077   -0.1265 H   0  0  0  0  0  0  0  0  0  0  0  0
   -4.5749   -2.3019    1.3230 H   0  0  0  0  0  0  0  0  0  0  0  0
   -4.2165   -4.5833    0.9611 H   0  0  0  0  0  0  0  0  0  0  0  0
   -5.9609   -4.3064    1.0316 H   0  0  0  0  0  0  0  0  0  0  0  0
   -4.5349   -4.7357   -2.7787 H   0  0  0  0  0  0  0  0  0  0  0  0
   -5.4715   -3.3250   -2.2191 H   0  0  0  0  0  0  0  0  0  0  0  0
   -3.0824   -2.9412   -2.5395 H   0  0  0  0  0  0  0  0  0  0  0  0
   -2.6434   -4.1046   -1.2792 H   0  0  0  0  0  0  0  0  0  0  0  0
  1  2  1  0
  2  3  2  0
  3  4  1  0
  4  5  2  0
  5  6  1  0
  6  7  1  0
  7  8  2  0
  7  9  1  0
  9 10  2  0
 10 11  1  0
 11 12  2  0
 12 13  1  0
 13 14  2  0
 13 15  1  0
 15 16  1  0
 15 17  1  0
 15 18  1  0
  5 19  1  0
 19 20  2  0
 20 21  1  0
 21 22  2  0
 22 23  1  0
 23 24  2  0
 24 25  1  0
 25 26  2  0
 25 27  1  0
 27 28  1  0
 28 29  1  0
 29 30  1  0
 30 31  1  0
 31 32  1  0
 23 33  1  0
 33 34  1  0
 34 35  1  0
 35 36  1  0
 36 37  1  0
 37 38  1  0
 20  2  1  0
 26 21  1  0
 32 27  1  0
 38 33  1  0
 14  9  1  0
  1 39  1  0
  1 40  1  0
  1 41  1  0
  3 42  1  0
  4 43  1  0
  6 44  1  0
 10 45  1  0
 11 46  1  0
 12 47  1  0
 14 48  1  0
 19 49  1  0
 22 50  1  0
 26 51  1  0
 28 52  1  0
 28 53  1  0
 29 54  1  0
 29 55  1  0
 31 56  1  0
 31 57  1  0
 32 58  1  0
 32 59  1  0
 34 60  1  0
 34 61  1  0
 35 62  1  0
 35 63  1  0
 37 64  1  0
 37 65  1  0
 38 66  1  0
 38 67  1  0
M  END
$$$$
[H]N=C(N([H])[H])N([H])C([H])([H])C([H])([H])C([H])([H])[C@@]([H])(C(=O)N([H])[C@]([H])(C(=O)N([H])[H])C([H])([H])c1c([H])c([H])c(O[H])c([H])c1[H])N([H])C(=O)[C@@]([H])(N([H])[H])C([H])([H])c1c([H])c([H])c(O[H])c([H])c1[H]
     RDKit          3D

 69 70  0  0  0  0  0  0  0  0999 V2000
   -4.0404   -0.6290   -2.0837 N   0  0  0  0  0  0  0  0  0  0  0  0
   -3.6005   -0.4601   -0.7168 C   0  0  1  0  0  0  0  0  0  0  0  0
   -3.8378   -1.7562    0.0330 C   0  0  0  0  0  0  0  0  0  0  0  0
   -5.3165   -2.0122   -0.0438 C   0  0  0  0  0  0  0  0  0  0  0  0
   -6.1691   -1.5228    0.9240 C   0  0  0  0  0  0  0  0  0  0  0  0
   -7.5261   -1.7666    0.8394 C   0  0  0  0  0  0  0  0  0  0  0  0
   -8.0839   -2.4927   -0.1900 C   0  0  0  0  0  0  0  0  0  0  0  0
   -9.4463   -2.7124   -0.2352 O   0  0  0  0  0  0  0  0  0  0  0  0
   -7.2326   -2.9833   -1.1595 C   0  0  0  0  0  0  0  0  0  0  0  0
   -5.8737   -2.7385   -1.0735 C   0  0  0  0  0  0  0  0  0  0  0  0
   -2.1733   -0.0876   -0.7140 C   0  0  0  0  0  0  0  0  0  0  0  0
   -1.5732    0.0255   -1.8113 O   0  0  0  0  0  0  0  0  0  0  0  0
   -1.5154    0.1327    0.5118 N   0  0  0  0  0  0  0  0  0  0  0  0
   -0.1033    0.5092    0.5707 C   0  0  1  0  0  0  0  0  0  0  0  0
    0.1211    1.7077    1.4311 C   0  0  0  0  0  0  0  0  0  0  0  0
   -0.6408    2.8838    0.8815 C   0  0  0  0  0  0  0  0  0  0  0  0
   -0.2246    3.2920   -0.4983 C   0  0  0  0  0  0  0  0  0  0  0  0
    1.1846    3.6660   -0.5253 N   0  0  0  0  0  0  0  0  0  0  0  0
    1.8137    4.0924   -1.7333 C   0  0  0  0  0  0  0  0  0  0  0  0
    1.6685    5.4429   -2.1474 N   0  0  0  0  0  0  0  0  0  0  0  0
    2.5138    3.2942   -2.4691 N   0  0  0  0  0  0  0  0  0  0  0  0
    0.6455   -0.6785    1.0559 C   0  0  0  0  0  0  0  0  0  0  0  0
    0.0159   -1.7180    1.3149 O   0  0  0  0  0  0  0  0  0  0  0  0
    2.0468   -0.6429    1.2249 N   0  0  0  0  0  0  0  0  0  0  0  0
    2.8225   -1.7682    1.6930 C   0  0  1  0  0  0  0  0  0  0  0  0
    3.7448   -2.3020    0.6187 C   0  0  0  0  0  0  0  0  0  0  0  0
    4.7155   -1.2976    0.1263 C   0  0  0  0  0  0  0  0  0  0  0  0
    5.9597   -1.1485    0.6783 C   0  0  0  0  0  0  0  0  0  0  0  0
    6.8037   -0.1862    0.1641 C   0  0  0  0  0  0  0  0  0  0  0  0
    6.4614    0.6326   -0.8751 C   0  0  0  0  0  0  0  0  0  0  0  0
    7.3200    1.6046   -1.3910 O   0  0  0  0  0  0  0  0  0  0  0  0
    5.2099    0.4796   -1.4273 C   0  0  0  0  0  0  0  0  0  0  0  0
    4.3606   -0.4790   -0.9199 C   0  0  0  0  0  0  0  0  0  0  0  0
    3.4832   -1.5454    2.9914 C   0  0  0  0  0  0  0  0  0  0  0  0
    4.2480   -2.5951    3.5587 N   0  0  0  0  0  0  0  0  0  0  0  0
    3.4023   -0.4664    3.6258 O   0  0  0  0  0  0  0  0  0  0  0  0
   -3.8704    0.2367   -2.6358 H   0  0  0  0  0  0  0  0  0  0  0  0
   -3.5058   -1.4307   -2.4769 H   0  0  0  0  0  0  0  0  0  0  0  0
   -4.2185    0.3118   -0.2217 H   0  0  0  0  0  0  0  0  0  0  0  0
   -3.2522   -2.5832   -0.3815 H   0  0  0  0  0  0  0  0  0  0  0  0
   -3.5908   -1.6458    1.0984 H   0  0  0  0  0  0  0  0  0  0  0  0
   -5.7325   -0.9528    1.7323 H   0  0  0  0  0  0  0  0  0  0  0  0
   -8.1929   -1.3868    1.5916 H   0  0  0  0  0  0  0  0  0  0  0  0
  -10.0841   -2.1019   -0.6921 H   0  0  0  0  0  0  0  0  0  0  0  0
   -7.6801   -3.5534   -1.9655 H   0  0  0  0  0  0  0  0  0  0  0  0
   -5.2112   -3.1169   -1.8226 H   0  0  0  0  0  0  0  0  0  0  0  0
   -2.0390    0.0276    1.4138 H   0  0  0  0  0  0  0  0  0  0  0  0
    0.1919    0.7645   -0.4724 H   0  0  0  0  0  0  0  0  0  0  0  0
   -0.2232    1.5694    2.4764 H   0  0  0  0  0  0  0  0  0  0  0  0
    1.2244    1.9103    1.4114 H   0  0  0  0  0  0  0  0  0  0  0  0
   -0.4968    3.7881    1.5456 H   0  0  0  0  0  0  0  0  0  0  0  0
   -1.7444    2.6963    0.9381 H   0  0  0  0  0  0  0  0  0  0  0  0
   -0.4874    2.6051   -1.2945 H   0  0  0  0  0  0  0  0  0  0  0  0
   -0.7712    4.2522   -0.7207 H   0  0  0  0  0  0  0  0  0  0  0  0
    1.7135    3.6145    0.3493 H   0  0  0  0  0  0  0  0  0  0  0  0
    2.4671    6.1081   -2.2611 H   0  0  0  0  0  0  0  0  0  0  0  0
    0.6911    5.7655   -2.3441 H   0  0  0  0  0  0  0  0  0  0  0  0
    2.6177    2.3091   -2.1640 H   0  0  0  0  0  0  0  0  0  0  0  0
    2.5302    0.2755    0.9867 H   0  0  0  0  0  0  0  0  0  0  0  0
    2.0797   -2.6017    1.8702 H   0  0  0  0  0  0  0  0  0  0  0  0
    3.1855   -2.7664   -0.2131 H   0  0  0  0  0  0  0  0  0  0  0  0
    4.3766   -3.1412    1.0351 H   0  0  0  0  0  0  0  0  0  0  0  0
    6.3080   -1.7672    1.5098 H   0  0  0  0  0  0  0  0  0  0  0  0
    7.8037   -0.0423    0.5830 H   0  0  0  0  0  0  0  0  0  0  0  0
    7.3377    2.5522   -1.0366 H   0  0  0  0  0  0  0  0  0  0  0  0
    4.8869    1.0987   -2.2496 H   0  0  0  0  0  0  0  0  0  0  0  0
    3.3730   -0.5556   -1.4013 H   0  0  0  0  0  0  0  0  0  0  0  0
    5.3038   -2.5362    3.6408 H   0  0  0  0  0  0  0  0  0  0  0  0
    3.8256   -3.4773    3.9250 H   0  0  0  0  0  0  0  0  0  0  0  0
  1  2  1  0
  2  3  1  0
  3  4  1  0
  4  5  2  0
  5  6  1  0
  6  7  2  0
  7  8  1  0
  7  9  1  0
  9 10  2  0
  2 11  1  0
 11 12  2  0
 11 13  1  0
 13 14  1  0
 14 15  1  0
 15 16  1  0
 16 17  1  0
 17 18  1  0
 18 19  1  0
 19 20  1  0
 19 21  2  3
 14 22  1  0
 22 23  2  0
 22 24  1  0
 24 25  1  0
 25 26  1  0
 26 27  1  0
 27 28  2  0
 28 29  1  0
 29 30  2  0
 30 31  1  0
 30 32  1  0
 32 33  2  0
 25 34  1  0
 34 35  1  0
 34 36  2  0
 10  4  1  0
 33 27  1  0
  1 37  1  0
  1 38  1  0
  2 39  1  1
  3 40  1  0
  3 41  1  0
  5 42  1  0
  6 43  1  0
  8 44  1  0
  9 45  1  0
 10 46  1  0
 13 47  1  0
 14 48  1  6
 15 49  1  0
 15 50  1  0
 16 51  1  0
 16 52  1  0
 17 53  1  0
 17 54  1  0
 18 55  1  0
 20 56  1  0
 20 57  1  0
 21 58  1  0
 24 59  1  0
 25 60  1  1
 26 61  1  0
 26 62  1  0
 28 63  1  0
 29 64  1  0
 31 65  1  0
 32 66  1  0
 33 67  1  0
 35 68  1  0
 35 69  1  0
M  END
$$$$
[H]OC(=O)[C@@]([H])(N([H])C(=O)[C@@]([H])(N([H])C(=O)OC([H])([H])c1c([H])c([H])c([H])c([H])c1[H])C([H])(c1c([H])c([H])c([H])c([H])c1[H])c1c([H])c([H])c([H])c([H])c1[H])C([H])([H])[H]
     RDKit          3D

 59 61  0  0  0  0  0  0  0  0999 V2000
   -3.2938   -4.1818   -0.5540 C   0  0  0  0  0  0  0  0  0  0  0  0
   -2.9478   -3.1234   -1.6109 C   0  0  2  0  0  0  0  0  0  0  0  0
   -2.5842   -1.9277   -0.8388 N   0  0  0  0  0  0  0  0  0  0  0  0
   -1.2728   -1.4451   -0.8019 C   0  0  0  0  0  0  0  0  0  0  0  0
   -0.4172   -2.1169   -1.4891 O   0  0  0  0  0  0  0  0  0  0  0  0
   -0.7772   -0.2860   -0.0779 C   0  0  1  0  0  0  0  0  0  0  0  0
    0.6974   -0.2153   -0.2389 N   0  0  0  0  0  0  0  0  0  0  0  0
    1.6009   -0.6596    0.7374 C   0  0  0  0  0  0  0  0  0  0  0  0
    1.1940   -1.1513    1.8055 O   0  0  0  0  0  0  0  0  0  0  0  0
    2.9568   -0.5525    0.5168 O   0  0  0  0  0  0  0  0  0  0  0  0
    3.9157   -0.9712    1.4397 C   0  0  0  0  0  0  0  0  0  0  0  0
    5.2899   -0.7159    0.8969 C   0  0  0  0  0  0  0  0  0  0  0  0
    6.3534   -1.0526    1.6948 C   0  0  0  0  0  0  0  0  0  0  0  0
    7.6388   -0.8379    1.2421 C   0  0  0  0  0  0  0  0  0  0  0  0
    7.8114   -0.2874   -0.0074 C   0  0  0  0  0  0  0  0  0  0  0  0
    6.7422    0.0469   -0.7999 C   0  0  0  0  0  0  0  0  0  0  0  0
    5.4662   -0.1668   -0.3495 C   0  0  0  0  0  0  0  0  0  0  0  0
   -1.2802    1.0477   -0.4443 C   0  0  0  0  0  0  0  0  0  0  0  0
   -0.6077    2.1001    0.3899 C   0  0  0  0  0  0  0  0  0  0  0  0
   -0.1031    3.2550   -0.2218 C   0  0  0  0  0  0  0  0  0  0  0  0
    0.5061    4.2370    0.5242 C   0  0  0  0  0  0  0  0  0  0  0  0
    0.6317    4.1014    1.8948 C   0  0  0  0  0  0  0  0  0  0  0  0
    0.1487    2.9808    2.5334 C   0  0  0  0  0  0  0  0  0  0  0  0
   -0.4587    2.0144    1.7438 C   0  0  0  0  0  0  0  0  0  0  0  0
   -2.7158    1.2849   -0.5194 C   0  0  0  0  0  0  0  0  0  0  0  0
   -3.5134    1.3316    0.5947 C   0  0  0  0  0  0  0  0  0  0  0  0
   -4.8923    1.5792    0.5235 C   0  0  0  0  0  0  0  0  0  0  0  0
   -5.4892    1.7859   -0.7004 C   0  0  0  0  0  0  0  0  0  0  0  0
   -4.6985    1.7417   -1.8328 C   0  0  0  0  0  0  0  0  0  0  0  0
   -3.3499    1.4983   -1.7487 C   0  0  0  0  0  0  0  0  0  0  0  0
   -4.0429   -2.9124   -2.5456 C   0  0  0  0  0  0  0  0  0  0  0  0
   -4.5021   -3.9386   -3.3522 O   0  0  0  0  0  0  0  0  0  0  0  0
   -4.5946   -1.7952   -2.6407 O   0  0  0  0  0  0  0  0  0  0  0  0
   -2.6362   -4.0153    0.3044 H   0  0  0  0  0  0  0  0  0  0  0  0
   -4.3559   -4.0357   -0.2696 H   0  0  0  0  0  0  0  0  0  0  0  0
   -3.0785   -5.1706   -0.9858 H   0  0  0  0  0  0  0  0  0  0  0  0
   -2.0243   -3.4725   -2.1058 H   0  0  0  0  0  0  0  0  0  0  0  0
   -3.4015   -1.5165   -0.3405 H   0  0  0  0  0  0  0  0  0  0  0  0
   -0.9001   -0.4504    1.0312 H   0  0  0  0  0  0  0  0  0  0  0  0
    1.0622    0.1862   -1.1262 H   0  0  0  0  0  0  0  0  0  0  0  0
    3.8321   -0.3716    2.3788 H   0  0  0  0  0  0  0  0  0  0  0  0
    3.7709   -2.0270    1.6705 H   0  0  0  0  0  0  0  0  0  0  0  0
    6.1878   -1.4806    2.6660 H   0  0  0  0  0  0  0  0  0  0  0  0
    8.4696   -1.1075    1.8807 H   0  0  0  0  0  0  0  0  0  0  0  0
    8.8344   -0.1326   -0.3309 H   0  0  0  0  0  0  0  0  0  0  0  0
    6.8868    0.4788   -1.7802 H   0  0  0  0  0  0  0  0  0  0  0  0
    4.6030    0.0816   -0.9401 H   0  0  0  0  0  0  0  0  0  0  0  0
   -0.8527    1.2508   -1.4940 H   0  0  0  0  0  0  0  0  0  0  0  0
   -0.2124    3.3436   -1.3081 H   0  0  0  0  0  0  0  0  0  0  0  0
    0.8899    5.1210    0.0390 H   0  0  0  0  0  0  0  0  0  0  0  0
    1.1116    4.8783    2.4706 H   0  0  0  0  0  0  0  0  0  0  0  0
    0.2283    2.8364    3.6147 H   0  0  0  0  0  0  0  0  0  0  0  0
   -0.8362    1.1199    2.2651 H   0  0  0  0  0  0  0  0  0  0  0  0
   -3.0780    1.1723    1.5678 H   0  0  0  0  0  0  0  0  0  0  0  0
   -5.4834    1.6058    1.4457 H   0  0  0  0  0  0  0  0  0  0  0  0
   -6.5439    1.9783   -0.7904 H   0  0  0  0  0  0  0  0  0  0  0  0
   -5.1761    1.9055   -2.7925 H   0  0  0  0  0  0  0  0  0  0  0  0
   -2.7201    1.4620   -2.6414 H   0  0  0  0  0  0  0  0  0  0  0  0
   -3.9893   -4.3074   -4.1411 H   0  0  0  0  0  0  0  0  0  0  0  0
  1  2  1  0
  2  3  1  0
  3  4  1  0
  4  5  2  0
  4  6  1  0
  6  7  1  0
  7  8  1  0
  8  9  2  0
  8 10  1  0
 10 11  1  0
 11 12  1  0
 12 13  2  0
 13 14  1  0
 14 15  2  0
 15 16  1  0
 16 17  2  0
  6 18  1  0
 18 19  1  0
 19 20  2  0
 20 21  1  0
 21 22  2  0
 22 23  1  0
 23 24  2  0
 18 25  1  0
 25 26  2  0
 26 27  1  0
 27 28  2  0
 28 29  1  0
 29 30  2  0
  2 31  1  0
 31 32  1  0
 31 33  2  0
 17 12  1  0
 24 19  1  0
 30 25  1  0
  1 34  1  0
  1 35  1  0
  1 36  1  0
  2 37  1  6
  3 38  1  0
  6 39  1  1
  7 40  1  0
 11 41  1  0
 11 42  1  0
 13 43  1  0
 14 44  1  0
 15 45  1  0
 16 46  1  0
 17 47  1  0
 18 48  1  0
 20 49  1  0
 21 50  1  0
 22 51  1  0
 23 52  1  0
 24 53  1  0
 26 54  1  0
 27 55  1  0
 28 56  1  0
 29 57  1  0
 30 58  1  0
 32 59  1  0
M  END
$$$$
[H]c1c([H])c([H])c(N2C([H])([H])N([H])C(=O)C23C([H])([H])C([H])([H])N(C(=O)c2c([H])c([H])c(C(C([H])([H])[H])(C([H])([H])[H])C([H])([H])[H])c([H])c2[H])C([H])([H])C3([H])[H])c([H])c1[H]
     RDKit          3D

 58 61  0  0  0  0  0  0  0  0999 V2000
   -6.3201    0.9733   -1.9835 C   0  0  0  0  0  0  0  0  0  0  0  0
   -6.2282    0.7770   -0.5108 C   0  0  0  0  0  0  0  0  0  0  0  0
   -6.7245    2.0179    0.2025 C   0  0  0  0  0  0  0  0  0  0  0  0
   -7.1534   -0.4080   -0.1775 C   0  0  0  0  0  0  0  0  0  0  0  0
   -4.8675    0.4409   -0.0902 C   0  0  0  0  0  0  0  0  0  0  0  0
   -4.5134    0.3240    1.2522 C   0  0  0  0  0  0  0  0  0  0  0  0
   -3.2471   -0.0005    1.6447 C   0  0  0  0  0  0  0  0  0  0  0  0
   -2.2209   -0.2376    0.7046 C   0  0  0  0  0  0  0  0  0  0  0  0
   -2.5834   -0.1216   -0.6101 C   0  0  0  0  0  0  0  0  0  0  0  0
   -3.8765    0.2110   -0.9821 C   0  0  0  0  0  0  0  0  0  0  0  0
   -0.9595   -0.6111    1.2426 C   0  0  0  0  0  0  0  0  0  0  0  0
   -0.9097   -0.9153    2.5179 O   0  0  0  0  0  0  0  0  0  0  0  0
    0.3106   -0.7196    0.6364 N   0  0  0  0  0  0  0  0  0  0  0  0
    0.5804   -0.4016   -0.7216 C   0  0  0  0  0  0  0  0  0  0  0  0
    2.0194    0.0182   -1.0246 C   0  0  0  0  0  0  0  0  0  0  0  0
    2.9516   -0.9627   -0.3434 C   0  0  0  0  0  0  0  0  0  0  0  0
    2.7001   -0.7394    1.1438 C   0  0  0  0  0  0  0  0  0  0  0  0
    1.3734   -1.2443    1.5308 C   0  0  0  0  0  0  0  0  0  0  0  0
    4.3292   -0.7691   -0.5701 N   0  0  0  0  0  0  0  0  0  0  0  0
    4.8270   -1.9025   -1.3462 C   0  0  0  0  0  0  0  0  0  0  0  0
    3.7858   -2.8656   -1.3918 N   0  0  0  0  0  0  0  0  0  0  0  0
    2.6244   -2.3256   -0.7878 C   0  0  0  0  0  0  0  0  0  0  0  0
    1.5564   -3.0132   -0.7138 O   0  0  0  0  0  0  0  0  0  0  0  0
    5.2823    0.2631   -0.2310 C   0  0  0  0  0  0  0  0  0  0  0  0
    5.0159    1.5960   -0.3541 C   0  0  0  0  0  0  0  0  0  0  0  0
    5.9823    2.5334   -0.0030 C   0  0  0  0  0  0  0  0  0  0  0  0
    7.2099    2.1534    0.4681 C   0  0  0  0  0  0  0  0  0  0  0  0
    7.5151    0.8209    0.6061 C   0  0  0  0  0  0  0  0  0  0  0  0
    6.5435   -0.0874    0.2533 C   0  0  0  0  0  0  0  0  0  0  0  0
   -5.8103    1.8785   -2.3672 H   0  0  0  0  0  0  0  0  0  0  0  0
   -5.9454    0.0989   -2.5583 H   0  0  0  0  0  0  0  0  0  0  0  0
   -7.3967    1.0686   -2.2841 H   0  0  0  0  0  0  0  0  0  0  0  0
   -7.7134    2.2783   -0.2519 H   0  0  0  0  0  0  0  0  0  0  0  0
   -6.0319    2.8386    0.0107 H   0  0  0  0  0  0  0  0  0  0  0  0
   -6.8334    1.8594    1.2848 H   0  0  0  0  0  0  0  0  0  0  0  0
   -8.1930   -0.1111   -0.3515 H   0  0  0  0  0  0  0  0  0  0  0  0
   -6.8969   -1.1832   -0.9439 H   0  0  0  0  0  0  0  0  0  0  0  0
   -6.9463   -0.7847    0.8422 H   0  0  0  0  0  0  0  0  0  0  0  0
   -5.3119    0.5081    1.9609 H   0  0  0  0  0  0  0  0  0  0  0  0
   -2.9859   -0.0826    2.7014 H   0  0  0  0  0  0  0  0  0  0  0  0
   -1.8888   -0.3184   -1.3975 H   0  0  0  0  0  0  0  0  0  0  0  0
   -4.0352    0.2775   -2.0626 H   0  0  0  0  0  0  0  0  0  0  0  0
    0.2224   -1.1286   -1.4650 H   0  0  0  0  0  0  0  0  0  0  0  0
    0.0125    0.5667   -0.9366 H   0  0  0  0  0  0  0  0  0  0  0  0
    2.1167    0.9754   -0.4501 H   0  0  0  0  0  0  0  0  0  0  0  0
    2.1223    0.0849   -2.0931 H   0  0  0  0  0  0  0  0  0  0  0  0
    3.5379   -1.1303    1.7526 H   0  0  0  0  0  0  0  0  0  0  0  0
    2.6968    0.3747    1.2646 H   0  0  0  0  0  0  0  0  0  0  0  0
    1.1412   -0.8289    2.5593 H   0  0  0  0  0  0  0  0  0  0  0  0
    1.3696   -2.3430    1.5746 H   0  0  0  0  0  0  0  0  0  0  0  0
    5.0487   -1.4551   -2.3623 H   0  0  0  0  0  0  0  0  0  0  0  0
    5.7465   -2.2633   -0.8665 H   0  0  0  0  0  0  0  0  0  0  0  0
    3.8825   -3.8215   -1.8111 H   0  0  0  0  0  0  0  0  0  0  0  0
    4.0698    1.9740   -0.7348 H   0  0  0  0  0  0  0  0  0  0  0  0
    5.7335    3.5821   -0.1133 H   0  0  0  0  0  0  0  0  0  0  0  0
    7.9841    2.8781    0.7452 H   0  0  0  0  0  0  0  0  0  0  0  0
    8.4904    0.5272    0.9784 H   0  0  0  0  0  0  0  0  0  0  0  0
    6.8111   -1.1246    0.3724 H   0  0  0  0  0  0  0  0  0  0  0  0
  1  2  1  0
  2  3  1  0
  2  4  1  0
  2  5  1  0
  5  6  2  0
  6  7  1  0
  7  8  2  0
  8  9  1  0
  9 10  2  0
  8 11  1  0
 11 12  2  0
 11 13  1  0
 13 14  1  0
 14 15  1  0
 15 16  1  0
 16 17  1  0
 17 18  1  0
 16 19  1  0
 19 20  1  0
 20 21  1  0
 21 22  1  0
 22 23  2  0
 19 24  1  0
 24 25  2  0
 25 26  1  0
 26 27  2  0
 27 28  1  0
 28 29  2  0
 10  5  1  0
 18 13  1  0
 29 24  1  0
 22 16  1  0
  1 30  1  0
  1 31  1  0
  1 32  1  0
  3 33  1  0
  3 34  1  0
  3 35  1  0
  4 36  1  0
  4 37  1  0
  4 38  1  0
  6 39  1  0
  7 40  1  0
  9 41  1  0
 10 42  1  0
 14 43  1  0
 14 44  1  0
 15 45  1  0
 15 46  1  0
 17 47  1  0
 17 48  1  0
 18 49  1  0
 18 50  1  0
 20 51  1  0
 20 52  1  0
 21 53  1  0
 25 54  1  0
 26 55  1  0
 27 56  1  0
 28 57  1  0
 29 58  1  0
M  END
$$$$
[H]c1nc2c([H])c(N([H])c3nn([H])c(C([H])([H])[H])c3[H])nc(N([H])[C@@]3([H])C([H])([H])[C@@]4([H])N(S(=O)(=O)C5([H])C([H])([H])C5([H])[H])[C@]([H])(C([H])([H])C([H])([H])C4([H])[H])C3([H])[H])c2c([H])c1[H]
     RDKit          3D

 62 67  0  0  0  0  0  0  0  0999 V2000
    5.5294    4.4704   -1.7695 C   0  0  0  0  0  0  0  0  0  0  0  0
    5.1229    3.1039   -1.3697 C   0  0  0  0  0  0  0  0  0  0  0  0
    3.8413    2.6943   -1.1482 C   0  0  0  0  0  0  0  0  0  0  0  0
    3.8297    1.3336   -0.7846 C   0  0  0  0  0  0  0  0  0  0  0  0
    2.6660    0.6328   -0.4960 N   0  0  0  0  0  0  0  0  0  0  0  0
    2.5060   -0.7188   -0.1217 C   0  0  0  0  0  0  0  0  0  0  0  0
    3.5764   -1.5571    0.0080 C   0  0  0  0  0  0  0  0  0  0  0  0
    3.3580   -2.8808    0.3798 C   0  0  0  0  0  0  0  0  0  0  0  0
    4.4282   -3.6780    0.4990 N   0  0  0  0  0  0  0  0  0  0  0  0
    4.3232   -4.9707    0.8531 C   0  0  0  0  0  0  0  0  0  0  0  0
    3.0511   -5.4444    1.0908 C   0  0  0  0  0  0  0  0  0  0  0  0
    1.9314   -4.6366    0.9731 C   0  0  0  0  0  0  0  0  0  0  0  0
    2.0589   -3.3134    0.6089 C   0  0  0  0  0  0  0  0  0  0  0  0
    0.9865   -2.4606    0.4755 C   0  0  0  0  0  0  0  0  0  0  0  0
   -0.3188   -2.9528    0.7116 N   0  0  0  0  0  0  0  0  0  0  0  0
   -1.5234   -2.1032    0.6007 C   0  0  1  0  0  0  0  0  0  0  0  0
   -1.4297   -1.0500    1.6393 C   0  0  0  0  0  0  0  0  0  0  0  0
   -2.3785    0.1091    1.2823 C   0  0  2  0  0  0  0  0  0  0  0  0
   -3.7828   -0.3247    1.4429 C   0  0  0  0  0  0  0  0  0  0  0  0
   -4.5745   -0.5700    0.2352 C   0  0  0  0  0  0  0  0  0  0  0  0
   -3.8788   -0.5548   -1.0698 C   0  0  0  0  0  0  0  0  0  0  0  0
   -2.3892   -0.3419   -0.9963 C   0  0  2  0  0  0  0  0  0  0  0  0
   -1.6511   -1.6606   -0.8105 C   0  0  0  0  0  0  0  0  0  0  0  0
   -1.9886    0.5600    0.0058 N   0  0  0  0  0  0  0  0  0  0  0  0
   -2.1751    2.2107   -0.2724 S   0  0  0  0  0  0  0  0  0  0  0  0
   -1.6969    2.4930   -1.6936 O   0  0  0  0  0  0  0  0  0  0  0  0
   -1.2908    3.0594    0.6073 O   0  0  0  0  0  0  0  0  0  0  0  0
   -3.8210    2.8100   -0.1699 C   0  0  0  0  0  0  0  0  0  0  0  0
   -4.3307    3.4483    1.0834 C   0  0  0  0  0  0  0  0  0  0  0  0
   -3.8976    4.3440   -0.0443 C   0  0  0  0  0  0  0  0  0  0  0  0
    1.2554   -1.2126    0.1194 N   0  0  0  0  0  0  0  0  0  0  0  0
    5.1342    0.9999   -0.8100 N   0  0  0  0  0  0  0  0  0  0  0  0
    5.8960    2.0224   -1.1493 N   0  0  0  0  0  0  0  0  0  0  0  0
    4.9680    5.2565   -1.2453 H   0  0  0  0  0  0  0  0  0  0  0  0
    6.6295    4.5610   -1.6641 H   0  0  0  0  0  0  0  0  0  0  0  0
    5.3144    4.5965   -2.8559 H   0  0  0  0  0  0  0  0  0  0  0  0
    2.9800    3.3501   -1.2475 H   0  0  0  0  0  0  0  0  0  0  0  0
    1.7425    1.1878   -0.5630 H   0  0  0  0  0  0  0  0  0  0  0  0
    4.6095   -1.2497   -0.1644 H   0  0  0  0  0  0  0  0  0  0  0  0
    5.2106   -5.5993    0.9432 H   0  0  0  0  0  0  0  0  0  0  0  0
    2.9780   -6.4944    1.3774 H   0  0  0  0  0  0  0  0  0  0  0  0
    0.9920   -5.1074    1.1814 H   0  0  0  0  0  0  0  0  0  0  0  0
   -0.4626   -3.9547    0.9760 H   0  0  0  0  0  0  0  0  0  0  0  0
   -2.4217   -2.7499    0.8428 H   0  0  0  0  0  0  0  0  0  0  0  0
   -0.4506   -0.6334    1.8507 H   0  0  0  0  0  0  0  0  0  0  0  0
   -1.9037   -1.4737    2.5830 H   0  0  0  0  0  0  0  0  0  0  0  0
   -2.1077    0.9127    2.0303 H   0  0  0  0  0  0  0  0  0  0  0  0
   -3.7846   -1.2216    2.1336 H   0  0  0  0  0  0  0  0  0  0  0  0
   -4.3123    0.4587    2.0646 H   0  0  0  0  0  0  0  0  0  0  0  0
   -5.0850   -1.5760    0.3345 H   0  0  0  0  0  0  0  0  0  0  0  0
   -5.4540    0.1384    0.1520 H   0  0  0  0  0  0  0  0  0  0  0  0
   -4.0118   -1.5230   -1.6414 H   0  0  0  0  0  0  0  0  0  0  0  0
   -4.2840    0.2157   -1.7725 H   0  0  0  0  0  0  0  0  0  0  0  0
   -2.0520    0.0492   -1.9881 H   0  0  0  0  0  0  0  0  0  0  0  0
   -0.7191   -1.6719   -1.4091 H   0  0  0  0  0  0  0  0  0  0  0  0
   -2.3142   -2.4103   -1.3503 H   0  0  0  0  0  0  0  0  0  0  0  0
   -4.5961    2.4028   -0.8504 H   0  0  0  0  0  0  0  0  0  0  0  0
   -5.4116    3.4284    1.2721 H   0  0  0  0  0  0  0  0  0  0  0  0
   -3.7164    3.4013    2.0164 H   0  0  0  0  0  0  0  0  0  0  0  0
   -2.9765    4.9022    0.1532 H   0  0  0  0  0  0  0  0  0  0  0  0
   -4.6657    4.8759   -0.6270 H   0  0  0  0  0  0  0  0  0  0  0  0
    6.9379    2.0678   -1.2527 H   0  0  0  0  0  0  0  0  0  0  0  0
  1  2  1  0
  2  3  2  0
  3  4  1  0
  4  5  1  0
  5  6  1  0
  6  7  2  0
  7  8  1  0
  8  9  2  0
  9 10  1  0
 10 11  2  0
 11 12  1  0
 12 13  2  0
 13 14  1  0
 14 15  1  0
 15 16  1  0
 16 17  1  0
 17 18  1  0
 18 19  1  0
 19 20  1  0
 20 21  1  0
 21 22  1  0
 22 23  1  0
 22 24  1  0
 24 25  1  0
 25 26  2  0
 25 27  2  0
 25 28  1  0
 28 29  1  0
 29 30  1  0
 14 31  2  0
  4 32  2  0
 32 33  1  0
 33  2  1  0
 31  6  1  0
 13  8  1  0
 23 16  1  0
 30 28  1  0
 24 18  1  0
  1 34  1  0
  1 35  1  0
  1 36  1  0
  3 37  1  0
  5 38  1  0
  7 39  1  0
 10 40  1  0
 11 41  1  0
 12 42  1  0
 15 43  1  0
 16 44  1  1
 17 45  1  0
 17 46  1  0
 18 47  1  1
 19 48  1  0
 19 49  1  0
 20 50  1  0
 20 51  1  0
 21 52  1  0
 21 53  1  0
 22 54  1  6
 23 55  1  0
 23 56  1  0
 28 57  1  0
 29 58  1  0
 29 59  1  0
 30 60  1  0
 30 61  1  0
 33 62  1  0
M  END
$$$$
[H]c1c([H])c(C2=C(c3c([H])n(C([H])([H])[H])c4c([H])c([H])c([H])c([H])c34)C(=O)N([H])C2=O)c([H])c(C(F)(F)F)c1[H]
     RDKit          3D

 40 43  0  0  0  0  0  0  0  0999 V2000
   -4.2414    2.3438    0.4544 C   0  0  0  0  0  0  0  0  0  0  0  0
   -3.1190    1.3904    0.3842 N   0  0  0  0  0  0  0  0  0  0  0  0
   -2.1903    1.1177    1.3093 C   0  0  0  0  0  0  0  0  0  0  0  0
   -1.3697    0.0905    0.8880 C   0  0  0  0  0  0  0  0  0  0  0  0
   -0.2743   -0.5209    1.6644 C   0  0  0  0  0  0  0  0  0  0  0  0
    0.9144   -0.8976    1.3706 C   0  0  0  0  0  0  0  0  0  0  0  0
    1.5957   -1.4691    2.6038 C   0  0  0  0  0  0  0  0  0  0  0  0
    2.7709   -1.9259    2.5766 O   0  0  0  0  0  0  0  0  0  0  0  0
    0.7009   -1.3848    3.6603 N   0  0  0  0  0  0  0  0  0  0  0  0
   -0.4737   -0.8037    3.1244 C   0  0  0  0  0  0  0  0  0  0  0  0
   -1.4897   -0.5804    3.8164 O   0  0  0  0  0  0  0  0  0  0  0  0
    1.8268   -0.7123    0.2190 C   0  0  0  0  0  0  0  0  0  0  0  0
    2.2643   -1.7665   -0.5036 C   0  0  0  0  0  0  0  0  0  0  0  0
    3.3674   -1.6677   -1.3682 C   0  0  0  0  0  0  0  0  0  0  0  0
    4.0000   -0.4583   -1.4673 C   0  0  0  0  0  0  0  0  0  0  0  0
    3.5728    0.6355   -0.7564 C   0  0  0  0  0  0  0  0  0  0  0  0
    2.4838    0.5105    0.0855 C   0  0  0  0  0  0  0  0  0  0  0  0
    4.3277    1.9346   -0.7815 C   0  0  0  0  0  0  0  0  0  0  0  0
    4.3135    2.3774    0.5650 F   0  0  0  0  0  0  0  0  0  0  0  0
    3.7308    2.8208   -1.6053 F   0  0  0  0  0  0  0  0  0  0  0  0
    5.6488    1.6413   -1.0715 F   0  0  0  0  0  0  0  0  0  0  0  0
   -1.8239   -0.2730   -0.3599 C   0  0  0  0  0  0  0  0  0  0  0  0
   -1.4750   -1.2161   -1.2999 C   0  0  0  0  0  0  0  0  0  0  0  0
   -2.1615   -1.3281   -2.4844 C   0  0  0  0  0  0  0  0  0  0  0  0
   -3.2146   -0.5275   -2.7948 C   0  0  0  0  0  0  0  0  0  0  0  0
   -3.5705    0.4174   -1.8403 C   0  0  0  0  0  0  0  0  0  0  0  0
   -2.9095    0.5575   -0.6402 C   0  0  0  0  0  0  0  0  0  0  0  0
   -4.2490    2.8907    1.3891 H   0  0  0  0  0  0  0  0  0  0  0  0
   -5.1922    1.6914    0.4514 H   0  0  0  0  0  0  0  0  0  0  0  0
   -4.3382    2.9136   -0.4744 H   0  0  0  0  0  0  0  0  0  0  0  0
   -2.1572    1.6577    2.2559 H   0  0  0  0  0  0  0  0  0  0  0  0
    0.9184   -1.6983    4.6448 H   0  0  0  0  0  0  0  0  0  0  0  0
    1.7757   -2.7235   -0.4565 H   0  0  0  0  0  0  0  0  0  0  0  0
    3.7123   -2.4993   -1.9296 H   0  0  0  0  0  0  0  0  0  0  0  0
    4.8822   -0.3190   -2.1269 H   0  0  0  0  0  0  0  0  0  0  0  0
    2.1223    1.3439    0.6309 H   0  0  0  0  0  0  0  0  0  0  0  0
   -0.6573   -1.9054   -1.0877 H   0  0  0  0  0  0  0  0  0  0  0  0
   -1.8375   -2.0850   -3.1723 H   0  0  0  0  0  0  0  0  0  0  0  0
   -3.7600   -0.6249   -3.7406 H   0  0  0  0  0  0  0  0  0  0  0  0
   -4.4244    1.0526   -2.1326 H   0  0  0  0  0  0  0  0  0  0  0  0
  1  2  1  0
  2  3  1  0
  3  4  2  0
  4  5  1  0
  5  6  2  0
  6  7  1  0
  7  8  2  0
  7  9  1  0
  9 10  1  0
 10 11  2  0
  6 12  1  0
 12 13  2  0
 13 14  1  0
 14 15  2  0
 15 16  1  0
 16 17  2  0
 16 18  1  0
 18 19  1  0
 18 20  1  0
 18 21  1  0
  4 22  1  0
 22 23  2  0
 23 24  1  0
 24 25  2  0
 25 26  1  0
 26 27  2  0
 27  2  1  0
 10  5  1  0
 17 12  1  0
 27 22  1  0
  1 28  1  0
  1 29  1  0
  1 30  1  0
  3 31  1  0
  9 32  1  0
 13 33  1  0
 14 34  1  0
 15 35  1  0
 17 36  1  0
 23 37  1  0
 24 38  1  0
 25 39  1  0
 26 40  1  0
M  END
$$$$
[H]c1nc(N([H])c2c([H])c(N3C([H])([H])C([H])([H])OC([H])([H])C3([H])[H])c([H])c(N3C([H])([H])C([H])([H])OC([H])([H])C3([H])[H])c2[H])nc(N(c2c([H])c(C(=O)N([H])[H])c([H])c(C(F)(F)F)c2[H])C([H])([H])[H])c1[H]
     RDKit          3D

 70 74  0  0  0  0  0  0  0  0999 V2000
    4.5168    2.5254    1.4102 C   0  0  0  0  0  0  0  0  0  0  0  0
    4.3158    1.1988    0.8743 N   0  0  0  0  0  0  0  0  0  0  0  0
    2.9874    0.6479    0.9980 C   0  0  0  0  0  0  0  0  0  0  0  0
    2.6832   -0.1851    2.0493 C   0  0  0  0  0  0  0  0  0  0  0  0
    1.3953   -0.6602    2.1379 C   0  0  0  0  0  0  0  0  0  0  0  0
    0.4816   -0.3051    1.2166 N   0  0  0  0  0  0  0  0  0  0  0  0
    0.7623    0.5069    0.1912 C   0  0  0  0  0  0  0  0  0  0  0  0
   -0.1926    0.9504   -0.7608 N   0  0  0  0  0  0  0  0  0  0  0  0
   -1.5424    0.5706   -0.7124 C   0  0  0  0  0  0  0  0  0  0  0  0
   -1.9833   -0.7315   -0.7148 C   0  0  0  0  0  0  0  0  0  0  0  0
   -3.3378   -0.9909   -0.6543 C   0  0  0  0  0  0  0  0  0  0  0  0
   -4.2303    0.0687   -0.5904 C   0  0  0  0  0  0  0  0  0  0  0  0
   -3.8351    1.3868   -0.5840 C   0  0  0  0  0  0  0  0  0  0  0  0
   -2.4825    1.6318   -0.6460 C   0  0  0  0  0  0  0  0  0  0  0  0
   -4.7393    2.4898   -0.4966 N   0  0  0  0  0  0  0  0  0  0  0  0
   -6.1325    2.2944   -0.2086 C   0  0  0  0  0  0  0  0  0  0  0  0
   -6.5987    3.3145    0.8260 C   0  0  0  0  0  0  0  0  0  0  0  0
   -5.9548    4.5275    0.7503 O   0  0  0  0  0  0  0  0  0  0  0  0
   -5.4049    4.8140   -0.5006 C   0  0  0  0  0  0  0  0  0  0  0  0
   -4.2562    3.8397   -0.7021 C   0  0  0  0  0  0  0  0  0  0  0  0
   -3.8031   -2.3307   -0.6913 N   0  0  0  0  0  0  0  0  0  0  0  0
   -5.1653   -2.7406   -0.9170 C   0  0  0  0  0  0  0  0  0  0  0  0
   -5.5885   -3.5209    0.3072 C   0  0  0  0  0  0  0  0  0  0  0  0
   -4.6865   -4.5255    0.6233 O   0  0  0  0  0  0  0  0  0  0  0  0
   -3.6888   -4.6731   -0.3256 C   0  0  0  0  0  0  0  0  0  0  0  0
   -2.8445   -3.4182   -0.5001 C   0  0  0  0  0  0  0  0  0  0  0  0
    2.0454    0.9731    0.1080 N   0  0  0  0  0  0  0  0  0  0  0  0
    5.3248    0.4011    0.2713 C   0  0  0  0  0  0  0  0  0  0  0  0
    5.9408   -0.6219    0.9681 C   0  0  0  0  0  0  0  0  0  0  0  0
    6.9407   -1.4461    0.4719 C   0  0  0  0  0  0  0  0  0  0  0  0
    7.3467   -1.2148   -0.8317 C   0  0  0  0  0  0  0  0  0  0  0  0
    6.7522   -0.1883   -1.5755 C   0  0  0  0  0  0  0  0  0  0  0  0
    5.7558    0.6113   -1.0346 C   0  0  0  0  0  0  0  0  0  0  0  0
    7.1981    0.0332   -2.9690 C   0  0  0  0  0  0  0  0  0  0  0  0
    8.5977    0.0521   -3.0349 F   0  0  0  0  0  0  0  0  0  0  0  0
    6.7672    1.2624   -3.4352 F   0  0  0  0  0  0  0  0  0  0  0  0
    6.7421   -0.9984   -3.7938 F   0  0  0  0  0  0  0  0  0  0  0  0
    7.5117   -2.4918    1.2928 C   0  0  0  0  0  0  0  0  0  0  0  0
    8.8247   -2.3680    1.7857 N   0  0  0  0  0  0  0  0  0  0  0  0
    6.8257   -3.4981    1.5565 O   0  0  0  0  0  0  0  0  0  0  0  0
    4.0855    2.5614    2.4276 H   0  0  0  0  0  0  0  0  0  0  0  0
    5.5490    2.8481    1.4800 H   0  0  0  0  0  0  0  0  0  0  0  0
    3.8950    3.2084    0.7855 H   0  0  0  0  0  0  0  0  0  0  0  0
    3.4466   -0.4505    2.7877 H   0  0  0  0  0  0  0  0  0  0  0  0
    1.1731   -1.3133    2.9754 H   0  0  0  0  0  0  0  0  0  0  0  0
    0.1162    1.5906   -1.5356 H   0  0  0  0  0  0  0  0  0  0  0  0
   -1.2573   -1.5593   -0.7566 H   0  0  0  0  0  0  0  0  0  0  0  0
   -5.2864   -0.1526   -0.5465 H   0  0  0  0  0  0  0  0  0  0  0  0
   -2.1201    2.6505   -0.6434 H   0  0  0  0  0  0  0  0  0  0  0  0
   -6.3767    1.2996    0.2057 H   0  0  0  0  0  0  0  0  0  0  0  0
   -6.6856    2.4633   -1.1793 H   0  0  0  0  0  0  0  0  0  0  0  0
   -6.4286    2.9138    1.8683 H   0  0  0  0  0  0  0  0  0  0  0  0
   -7.6943    3.4640    0.6905 H   0  0  0  0  0  0  0  0  0  0  0  0
   -4.9576    5.8248   -0.4177 H   0  0  0  0  0  0  0  0  0  0  0  0
   -6.1788    4.7479   -1.2946 H   0  0  0  0  0  0  0  0  0  0  0  0
   -3.4538    4.0342    0.0369 H   0  0  0  0  0  0  0  0  0  0  0  0
   -3.8533    3.9034   -1.7316 H   0  0  0  0  0  0  0  0  0  0  0  0
   -5.8869   -1.9132   -1.0469 H   0  0  0  0  0  0  0  0  0  0  0  0
   -5.1512   -3.3831   -1.8240 H   0  0  0  0  0  0  0  0  0  0  0  0
   -5.7803   -2.8217    1.1330 H   0  0  0  0  0  0  0  0  0  0  0  0
   -6.5571   -4.0026    0.0749 H   0  0  0  0  0  0  0  0  0  0  0  0
   -4.0598   -4.9900   -1.2945 H   0  0  0  0  0  0  0  0  0  0  0  0
   -3.0010   -5.4680    0.0304 H   0  0  0  0  0  0  0  0  0  0  0  0
   -2.3254   -3.5182   -1.4792 H   0  0  0  0  0  0  0  0  0  0  0  0
   -2.1614   -3.2063    0.3275 H   0  0  0  0  0  0  0  0  0  0  0  0
    5.6387   -0.8172    2.0003 H   0  0  0  0  0  0  0  0  0  0  0  0
    8.1192   -1.8203   -1.2814 H   0  0  0  0  0  0  0  0  0  0  0  0
    5.3390    1.3788   -1.6376 H   0  0  0  0  0  0  0  0  0  0  0  0
    8.9954   -2.6530    2.7697 H   0  0  0  0  0  0  0  0  0  0  0  0
    9.6088   -2.0108    1.2072 H   0  0  0  0  0  0  0  0  0  0  0  0
  1  2  1  0
  2  3  1  0
  3  4  2  0
  4  5  1  0
  5  6  2  0
  6  7  1  0
  7  8  1  0
  8  9  1  0
  9 10  2  0
 10 11  1  0
 11 12  2  0
 12 13  1  0
 13 14  2  0
 13 15  1  0
 15 16  1  0
 16 17  1  0
 17 18  1  0
 18 19  1  0
 19 20  1  0
 11 21  1  0
 21 22  1  0
 22 23  1  0
 23 24  1  0
 24 25  1  0
 25 26  1  0
  7 27  2  0
  2 28  1  0
 28 29  2  0
 29 30  1  0
 30 31  2  0
 31 32  1  0
 32 33  2  0
 32 34  1  0
 34 35  1  0
 34 36  1  0
 34 37  1  0
 30 38  1  0
 38 39  1  0
 38 40  2  0
 27  3  1  0
 33 28  1  0
 14  9  1  0
 20 15  1  0
 26 21  1  0
  1 41  1  0
  1 42  1  0
  1 43  1  0
  4 44  1  0
  5 45  1  0
  8 46  1  0
 10 47  1  0
 12 48  1  0
 14 49  1  0
 16 50  1  0
 16 51  1  0
 17 52  1  0
 17 53  1  0
 19 54  1  0
 19 55  1  0
 20 56  1  0
 20 57  1  0
 22 58  1  0
 22 59  1  0
 23 60  1  0
 23 61  1  0
 25 62  1  0
 25 63  1  0
 26 64  1  0
 26 65  1  0
 29 66  1  0
 31 67  1  0
 33 68  1  0
 39 69  1  0
 39 70  1  0
M  END
$$$$
[H]Oc1c([H])c([H])c(/C([H])=C2\S/C(=C(/[H])c3c([H])c([H])c([H])c([H])c3[H])C2=O)c([H])c1O[H]
     RDKit          3D

 33 35  0  0  0  0  0  0  0  0999 V2000
   -5.7043   -1.5613   -1.3226 O   0  0  0  0  0  0  0  0  0  0  0  0
   -4.7501   -0.7013   -0.7849 C   0  0  0  0  0  0  0  0  0  0  0  0
   -4.6909    0.6026   -1.1766 C   0  0  0  0  0  0  0  0  0  0  0  0
   -3.7242    1.4338   -0.6178 C   0  0  0  0  0  0  0  0  0  0  0  0
   -2.8273    0.9838    0.3168 C   0  0  0  0  0  0  0  0  0  0  0  0
   -1.8302    1.8768    0.8776 C   0  0  0  0  0  0  0  0  0  0  0  0
   -0.5879    1.5088    1.1269 C   0  0  0  0  0  0  0  0  0  0  0  0
    0.2979   -0.0437    0.9132 S   0  0  0  0  0  0  0  0  0  0  0  0
    1.5689    1.1845    1.0689 C   0  0  0  0  0  0  0  0  0  0  0  0
    2.8389    1.2253    0.7663 C   0  0  0  0  0  0  0  0  0  0  0  0
    3.5571    0.1202    0.1602 C   0  0  0  0  0  0  0  0  0  0  0  0
    4.4646    0.4304   -0.8411 C   0  0  0  0  0  0  0  0  0  0  0  0
    5.2055   -0.5516   -1.4741 C   0  0  0  0  0  0  0  0  0  0  0  0
    5.0160   -1.8677   -1.0815 C   0  0  0  0  0  0  0  0  0  0  0  0
    4.1143   -2.1784   -0.0884 C   0  0  0  0  0  0  0  0  0  0  0  0
    3.3752   -1.1739    0.5422 C   0  0  0  0  0  0  0  0  0  0  0  0
    0.6351    2.1443    1.6722 C   0  0  0  0  0  0  0  0  0  0  0  0
    0.7789    3.1615    2.4004 O   0  0  0  0  0  0  0  0  0  0  0  0
   -2.9117   -0.3392    0.6925 C   0  0  0  0  0  0  0  0  0  0  0  0
   -3.8735   -1.1942    0.1471 C   0  0  0  0  0  0  0  0  0  0  0  0
   -3.9440   -2.5164    0.5347 O   0  0  0  0  0  0  0  0  0  0  0  0
   -6.3870   -1.2504   -2.0106 H   0  0  0  0  0  0  0  0  0  0  0  0
   -5.3764    1.0110   -1.9143 H   0  0  0  0  0  0  0  0  0  0  0  0
   -3.7195    2.4578   -0.9594 H   0  0  0  0  0  0  0  0  0  0  0  0
   -2.0862    2.9294    1.1229 H   0  0  0  0  0  0  0  0  0  0  0  0
    3.4260    2.1379    0.9655 H   0  0  0  0  0  0  0  0  0  0  0  0
    4.6031    1.4585   -1.1395 H   0  0  0  0  0  0  0  0  0  0  0  0
    5.9133   -0.3422   -2.2503 H   0  0  0  0  0  0  0  0  0  0  0  0
    5.5667   -2.6903   -1.5440 H   0  0  0  0  0  0  0  0  0  0  0  0
    3.9280   -3.1844    0.2530 H   0  0  0  0  0  0  0  0  0  0  0  0
    2.6657   -1.4340    1.3292 H   0  0  0  0  0  0  0  0  0  0  0  0
   -2.2532   -0.7876    1.4235 H   0  0  0  0  0  0  0  0  0  0  0  0
   -3.2889   -2.8501    1.2194 H   0  0  0  0  0  0  0  0  0  0  0  0
  1  2  1  0
  2  3  2  0
  3  4  1  0
  4  5  2  0
  5  6  1  0
  6  7  2  0
  7  8  1  0
  8  9  1  0
  9 10  2  0
 10 11  1  0
 11 12  2  0
 12 13  1  0
 13 14  2  0
 14 15  1  0
 15 16  2  0
  9 17  1  0
 17 18  2  0
  5 19  1  0
 19 20  2  0
 20 21  1  0
 20  2  1  0
 17  7  1  0
 16 11  1  0
  1 22  1  0
  3 23  1  0
  4 24  1  0
  6 25  1  0
 10 26  1  0
 12 27  1  0
 13 28  1  0
 14 29  1  0
 15 30  1  0
 16 31  1  0
 19 32  1  0
 21 33  1  0
M  END
$$$$
[H]O[C@]1([H])C([H])([H])C([H])([H])[C@@]([H])(N([H])C(=O)c2c([H])c(OC([H])([H])[H])c(OC([H])([H])[H])c(OC([H])([H])[H])c2[H])C([H])([H])C1([H])[H]
     RDKit          3D

 45 46  0  0  0  0  0  0  0  0999 V2000
   -3.8004    0.1076    3.6393 C   0  0  0  0  0  0  0  0  0  0  0  0
   -4.3238    0.0032    2.3304 O   0  0  0  0  0  0  0  0  0  0  0  0
   -3.4096   -0.0633    1.2765 C   0  0  0  0  0  0  0  0  0  0  0  0
   -2.0511   -0.0293    1.4916 C   0  0  0  0  0  0  0  0  0  0  0  0
   -1.1506   -0.0971    0.4219 C   0  0  0  0  0  0  0  0  0  0  0  0
   -1.6854   -0.1976   -0.8327 C   0  0  0  0  0  0  0  0  0  0  0  0
   -3.0702   -0.2323   -1.0523 C   0  0  0  0  0  0  0  0  0  0  0  0
   -3.5944   -0.3346   -2.3332 O   0  0  0  0  0  0  0  0  0  0  0  0
   -2.6935   -0.4035   -3.4174 C   0  0  0  0  0  0  0  0  0  0  0  0
   -3.9511   -0.1652    0.0039 C   0  0  0  0  0  0  0  0  0  0  0  0
   -5.3305   -0.1965   -0.1714 O   0  0  0  0  0  0  0  0  0  0  0  0
   -6.0589    1.0142   -0.3534 C   0  0  0  0  0  0  0  0  0  0  0  0
    0.2822   -0.0571    0.6960 C   0  0  0  0  0  0  0  0  0  0  0  0
    0.6952    0.0648    1.8917 O   0  0  0  0  0  0  0  0  0  0  0  0
    1.2175   -0.1523   -0.3526 N   0  0  0  0  0  0  0  0  0  0  0  0
    2.6140   -0.1123   -0.0772 C   0  0  1  0  0  0  0  0  0  0  0  0
    3.3204   -1.4112   -0.4752 C   0  0  0  0  0  0  0  0  0  0  0  0
    4.6768   -1.3618    0.2052 C   0  0  0  0  0  0  0  0  0  0  0  0
    5.4785   -0.1695   -0.1929 C   0  0  2  0  0  0  0  0  0  0  0  0
    6.4968   -0.0141    0.7775 O   0  0  0  0  0  0  0  0  0  0  0  0
    4.7177    1.1076   -0.2396 C   0  0  0  0  0  0  0  0  0  0  0  0
    3.3386    0.9988   -0.7945 C   0  0  0  0  0  0  0  0  0  0  0  0
   -3.1286   -0.7741    3.7812 H   0  0  0  0  0  0  0  0  0  0  0  0
   -3.1426    1.0122    3.6544 H   0  0  0  0  0  0  0  0  0  0  0  0
   -4.5735    0.1666    4.4065 H   0  0  0  0  0  0  0  0  0  0  0  0
   -1.6369    0.0502    2.4847 H   0  0  0  0  0  0  0  0  0  0  0  0
   -1.0400   -0.2530   -1.6958 H   0  0  0  0  0  0  0  0  0  0  0  0
   -2.0954    0.5371   -3.4716 H   0  0  0  0  0  0  0  0  0  0  0  0
   -1.9790   -1.2496   -3.3343 H   0  0  0  0  0  0  0  0  0  0  0  0
   -3.3068   -0.5311   -4.3501 H   0  0  0  0  0  0  0  0  0  0  0  0
   -6.2735    1.4267    0.6704 H   0  0  0  0  0  0  0  0  0  0  0  0
   -7.0238    0.8572   -0.8419 H   0  0  0  0  0  0  0  0  0  0  0  0
   -5.4461    1.7867   -0.8573 H   0  0  0  0  0  0  0  0  0  0  0  0
    0.8947   -0.2520   -1.3267 H   0  0  0  0  0  0  0  0  0  0  0  0
    2.8017   -0.0018    1.0138 H   0  0  0  0  0  0  0  0  0  0  0  0
    2.7709   -2.2776   -0.0476 H   0  0  0  0  0  0  0  0  0  0  0  0
    3.4085   -1.4385   -1.5705 H   0  0  0  0  0  0  0  0  0  0  0  0
    4.4844   -1.3738    1.3050 H   0  0  0  0  0  0  0  0  0  0  0  0
    5.2623   -2.2820   -0.0320 H   0  0  0  0  0  0  0  0  0  0  0  0
    6.0119   -0.4055   -1.1426 H   0  0  0  0  0  0  0  0  0  0  0  0
    6.0864    0.5270    1.4977 H   0  0  0  0  0  0  0  0  0  0  0  0
    5.2979    1.8283   -0.8871 H   0  0  0  0  0  0  0  0  0  0  0  0
    4.6941    1.5950    0.7666 H   0  0  0  0  0  0  0  0  0  0  0  0
    3.4170    0.8034   -1.8900 H   0  0  0  0  0  0  0  0  0  0  0  0
    2.7983    1.9503   -0.5742 H   0  0  0  0  0  0  0  0  0  0  0  0
  1  2  1  0
  2  3  1  0
  3  4  2  0
  4  5  1  0
  5  6  2  0
  6  7  1  0
  7  8  1  0
  8  9  1  0
  7 10  2  0
 10 11  1  0
 11 12  1  0
  5 13  1  0
 13 14  2  0
 13 15  1  0
 15 16  1  0
 16 17  1  0
 17 18  1  0
 18 19  1  0
 19 20  1  0
 19 21  1  0
 21 22  1  0
 10  3  1  0
 22 16  1  0
  1 23  1  0
  1 24  1  0
  1 25  1  0
  4 26  1  0
  6 27  1  0
  9 28  1  0
  9 29  1  0
  9 30  1  0
 12 31  1  0
 12 32  1  0
 12 33  1  0
 15 34  1  0
 16 35  1  1
 17 36  1  0
 17 37  1  0
 18 38  1  0
 18 39  1  0
 19 40  1  6
 20 41  1  0
 21 42  1  0
 21 43  1  0
 22 44  1  0
 22 45  1  0
M  END
$$$$
[H]c1nc(N([H])c2c([H])c([H])c(N3C([H])([H])C([H])([H])C([H])(N4C([H])([H])C([H])([H])N(C([H])([H])[H])C([H])([H])C4([H])[H])C([H])([H])C3([H])[H])c([H])c2OC([H])([H])[H])nc(N([H])c2c([H])c([H])c([H])c([H])c2S(=O)(=O)C([H])(C([H])([H])[H])C([H])([H])[H])c1Cl
     RDKit          3D

 82 86  0  0  0  0  0  0  0  0999 V2000
   -0.1870    3.7228   -1.2569 C   0  0  0  0  0  0  0  0  0  0  0  0
    0.4390    2.5297   -0.8437 O   0  0  0  0  0  0  0  0  0  0  0  0
   -0.3483    1.4775   -0.4024 C   0  0  0  0  0  0  0  0  0  0  0  0
   -1.7220    1.6350   -0.3827 C   0  0  0  0  0  0  0  0  0  0  0  0
   -2.5624    0.6308    0.0436 C   0  0  0  0  0  0  0  0  0  0  0  0
   -1.9599   -0.5357    0.4478 C   0  0  0  0  0  0  0  0  0  0  0  0
   -0.5748   -0.7280    0.4408 C   0  0  0  0  0  0  0  0  0  0  0  0
    0.2576    0.2764    0.0150 C   0  0  0  0  0  0  0  0  0  0  0  0
    1.6540    0.2011   -0.0367 N   0  0  0  0  0  0  0  0  0  0  0  0
    2.4984   -0.8842    0.3177 C   0  0  0  0  0  0  0  0  0  0  0  0
    2.1033   -2.0726    0.7812 N   0  0  0  0  0  0  0  0  0  0  0  0
    2.9559   -3.0558    1.0957 C   0  0  0  0  0  0  0  0  0  0  0  0
    4.3092   -2.8632    0.9451 C   0  0  0  0  0  0  0  0  0  0  0  0
    5.4455   -4.1449    1.3534 Cl  0  0  0  0  0  0  0  0  0  0  0  0
    4.7527   -1.6166    0.4572 C   0  0  0  0  0  0  0  0  0  0  0  0
    6.1380   -1.4466    0.3110 N   0  0  0  0  0  0  0  0  0  0  0  0
    6.9009   -0.3576   -0.1368 C   0  0  0  0  0  0  0  0  0  0  0  0
    6.2766    0.8084   -0.5266 C   0  0  0  0  0  0  0  0  0  0  0  0
    7.0240    1.9039   -0.9778 C   0  0  0  0  0  0  0  0  0  0  0  0
    8.3820    1.8034   -1.0274 C   0  0  0  0  0  0  0  0  0  0  0  0
    9.0024    0.6381   -0.6374 C   0  0  0  0  0  0  0  0  0  0  0  0
    8.2961   -0.4485   -0.1920 C   0  0  0  0  0  0  0  0  0  0  0  0
    9.0842   -1.8926    0.2913 S   0  0  0  0  0  0  0  0  0  0  0  0
    8.6633   -3.0312   -0.6035 O   0  0  0  0  0  0  0  0  0  0  0  0
    8.8235   -2.3045    1.7132 O   0  0  0  0  0  0  0  0  0  0  0  0
   10.8572   -1.7881    0.1370 C   0  0  0  0  0  0  0  0  0  0  0  0
   11.2609   -1.6791   -1.2975 C   0  0  0  0  0  0  0  0  0  0  0  0
   11.4760   -0.7869    1.0544 C   0  0  0  0  0  0  0  0  0  0  0  0
    3.8248   -0.7008    0.1721 N   0  0  0  0  0  0  0  0  0  0  0  0
   -3.9818    0.8060    0.0512 N   0  0  0  0  0  0  0  0  0  0  0  0
   -4.5241    1.9609   -0.5784 C   0  0  0  0  0  0  0  0  0  0  0  0
   -6.0011    1.9283   -0.8544 C   0  0  0  0  0  0  0  0  0  0  0  0
   -6.8245    1.3726    0.2584 C   0  0  0  0  0  0  0  0  0  0  0  0
   -6.0036    0.6088    1.2781 C   0  0  0  0  0  0  0  0  0  0  0  0
   -4.8657   -0.1463    0.6796 C   0  0  0  0  0  0  0  0  0  0  0  0
   -7.9560    0.6086   -0.0875 N   0  0  0  0  0  0  0  0  0  0  0  0
   -7.7905   -0.5856   -0.8057 C   0  0  0  0  0  0  0  0  0  0  0  0
   -9.1362   -1.0235   -1.3907 C   0  0  0  0  0  0  0  0  0  0  0  0
  -10.1390   -0.8718   -0.3544 N   0  0  0  0  0  0  0  0  0  0  0  0
  -10.0361   -1.8235    0.7053 C   0  0  0  0  0  0  0  0  0  0  0  0
  -10.3349    0.4834    0.0484 C   0  0  0  0  0  0  0  0  0  0  0  0
   -9.1475    1.3193   -0.4248 C   0  0  0  0  0  0  0  0  0  0  0  0
    0.5375    4.4499   -1.6799 H   0  0  0  0  0  0  0  0  0  0  0  0
   -0.9481    3.5330   -2.0530 H   0  0  0  0  0  0  0  0  0  0  0  0
   -0.6880    4.2523   -0.4156 H   0  0  0  0  0  0  0  0  0  0  0  0
   -2.1476    2.5764   -0.7105 H   0  0  0  0  0  0  0  0  0  0  0  0
   -2.6020   -1.3517    0.7883 H   0  0  0  0  0  0  0  0  0  0  0  0
   -0.2121   -1.6859    0.7807 H   0  0  0  0  0  0  0  0  0  0  0  0
    2.1500    1.0935   -0.3956 H   0  0  0  0  0  0  0  0  0  0  0  0
    2.6174   -4.0222    1.4737 H   0  0  0  0  0  0  0  0  0  0  0  0
    6.7215   -2.3022    0.5911 H   0  0  0  0  0  0  0  0  0  0  0  0
    5.2202    0.9989   -0.5296 H   0  0  0  0  0  0  0  0  0  0  0  0
    6.5603    2.8305   -1.2896 H   0  0  0  0  0  0  0  0  0  0  0  0
    9.0220    2.6252   -1.3712 H   0  0  0  0  0  0  0  0  0  0  0  0
   10.0936    0.6299   -0.7052 H   0  0  0  0  0  0  0  0  0  0  0  0
   11.2252   -2.8031    0.4806 H   0  0  0  0  0  0  0  0  0  0  0  0
   11.9033   -0.7785   -1.4926 H   0  0  0  0  0  0  0  0  0  0  0  0
   10.3307   -1.5514   -1.9199 H   0  0  0  0  0  0  0  0  0  0  0  0
   11.7765   -2.5763   -1.6995 H   0  0  0  0  0  0  0  0  0  0  0  0
   12.0225   -1.2557    1.8769 H   0  0  0  0  0  0  0  0  0  0  0  0
   12.1781   -0.1622    0.4319 H   0  0  0  0  0  0  0  0  0  0  0  0
   10.7434   -0.0899    1.5079 H   0  0  0  0  0  0  0  0  0  0  0  0
   -4.2803    2.8410    0.0525 H   0  0  0  0  0  0  0  0  0  0  0  0
   -3.9354    2.1199   -1.5269 H   0  0  0  0  0  0  0  0  0  0  0  0
   -6.3084    2.9635   -1.1164 H   0  0  0  0  0  0  0  0  0  0  0  0
   -6.1470    1.3325   -1.7818 H   0  0  0  0  0  0  0  0  0  0  0  0
   -7.2139    2.2642    0.8421 H   0  0  0  0  0  0  0  0  0  0  0  0
   -6.6586   -0.1075    1.8153 H   0  0  0  0  0  0  0  0  0  0  0  0
   -5.5929    1.2907    2.0626 H   0  0  0  0  0  0  0  0  0  0  0  0
   -5.1731   -0.8869   -0.0780 H   0  0  0  0  0  0  0  0  0  0  0  0
   -4.3121   -0.6097    1.5260 H   0  0  0  0  0  0  0  0  0  0  0  0
   -7.5080   -1.4012   -0.0997 H   0  0  0  0  0  0  0  0  0  0  0  0
   -7.0082   -0.5774   -1.5870 H   0  0  0  0  0  0  0  0  0  0  0  0
   -9.4445   -0.3742   -2.2343 H   0  0  0  0  0  0  0  0  0  0  0  0
   -9.0261   -2.0597   -1.7202 H   0  0  0  0  0  0  0  0  0  0  0  0
   -9.1822   -2.5377    0.5321 H   0  0  0  0  0  0  0  0  0  0  0  0
   -9.9814   -1.3564    1.7041 H   0  0  0  0  0  0  0  0  0  0  0  0
  -10.9456   -2.4645    0.6802 H   0  0  0  0  0  0  0  0  0  0  0  0
  -11.2261    0.8855   -0.4545 H   0  0  0  0  0  0  0  0  0  0  0  0
  -10.4517    0.5517    1.1515 H   0  0  0  0  0  0  0  0  0  0  0  0
   -9.2778    1.5186   -1.4917 H   0  0  0  0  0  0  0  0  0  0  0  0
   -9.1611    2.2698    0.1783 H   0  0  0  0  0  0  0  0  0  0  0  0
  1  2  1  0
  2  3  1  0
  3  4  2  0
  4  5  1  0
  5  6  2  0
  6  7  1  0
  7  8  2  0
  8  9  1  0
  9 10  1  0
 10 11  2  0
 11 12  1  0
 12 13  2  0
 13 14  1  0
 13 15  1  0
 15 16  1  0
 16 17  1  0
 17 18  2  0
 18 19  1  0
 19 20  2  0
 20 21  1  0
 21 22  2  0
 22 23  1  0
 23 24  2  0
 23 25  2  0
 23 26  1  0
 26 27  1  0
 26 28  1  0
 15 29  2  0
  5 30  1  0
 30 31  1  0
 31 32  1  0
 32 33  1  0
 33 34  1  0
 34 35  1  0
 33 36  1  0
 36 37  1  0
 37 38  1  0
 38 39  1  0
 39 40  1  0
 39 41  1  0
 41 42  1  0
  8  3  1  0
 29 10  1  0
 35 30  1  0
 42 36  1  0
 22 17  1  0
  1 43  1  0
  1 44  1  0
  1 45  1  0
  4 46  1  0
  6 47  1  0
  7 48  1  0
  9 49  1  0
 12 50  1  0
 16 51  1  0
 18 52  1  0
 19 53  1  0
 20 54  1  0
 21 55  1  0
 26 56  1  0
 27 57  1  0
 27 58  1  0
 27 59  1  0
 28 60  1  0
 28 61  1  0
 28 62  1  0
 31 63  1  0
 31 64  1  0
 32 65  1  0
 32 66  1  0
 33 67  1  0
 34 68  1  0
 34 69  1  0
 35 70  1  0
 35 71  1  0
 37 72  1  0
 37 73  1  0
 38 74  1  0
 38 75  1  0
 40 76  1  0
 40 77  1  0
 40 78  1  0
 41 79  1  0
 41 80  1  0
 42 81  1  0
 42 82  1  0
M  END
$$$$
[H]c1nc(N([H])c2c([H])c(N([H])C(=O)c3c([H])c([H])c(C([H])([H])N4C([H])([H])C([H])([H])N(C([H])([H])[H])C([H])([H])C4([H])[H])c([H])c3[H])c([H])c([H])c2C([H])([H])[H])nc(-c2c([H])nc([H])c([H])c2[H])c1[H]
     RDKit          3D

 68 72  0  0  0  0  0  0  0  0999 V2000
   -8.7479    3.4266    0.9293 C   0  0  0  0  0  0  0  0  0  0  0  0
   -7.3650    2.9906    0.9461 N   0  0  0  0  0  0  0  0  0  0  0  0
   -6.6451    3.4513   -0.2269 C   0  0  0  0  0  0  0  0  0  0  0  0
   -6.5764    2.2780   -1.1806 C   0  0  0  0  0  0  0  0  0  0  0  0
   -5.6380    1.2558   -0.6870 N   0  0  0  0  0  0  0  0  0  0  0  0
   -4.2736    1.6578   -1.0098 C   0  0  0  0  0  0  0  0  0  0  0  0
   -3.2946    0.6359   -0.5726 C   0  0  0  0  0  0  0  0  0  0  0  0
   -2.0253    1.0618   -0.2539 C   0  0  0  0  0  0  0  0  0  0  0  0
   -1.0453    0.1713    0.1570 C   0  0  0  0  0  0  0  0  0  0  0  0
   -1.3755   -1.1564    0.2384 C   0  0  0  0  0  0  0  0  0  0  0  0
   -2.6567   -1.5624   -0.0864 C   0  0  0  0  0  0  0  0  0  0  0  0
   -3.6359   -0.6917   -0.4943 C   0  0  0  0  0  0  0  0  0  0  0  0
   -0.3686   -2.1375    0.6612 C   0  0  0  0  0  0  0  0  0  0  0  0
   -0.8262   -3.2557    0.9933 O   0  0  0  0  0  0  0  0  0  0  0  0
    0.9922   -1.8076    0.6770 N   0  0  0  0  0  0  0  0  0  0  0  0
    2.0504   -2.6623    1.0701 C   0  0  0  0  0  0  0  0  0  0  0  0
    1.8977   -3.8196    1.7948 C   0  0  0  0  0  0  0  0  0  0  0  0
    2.9989   -4.6090    2.1159 C   0  0  0  0  0  0  0  0  0  0  0  0
    4.2721   -4.2912    1.7405 C   0  0  0  0  0  0  0  0  0  0  0  0
    5.4062   -5.1875    2.1222 C   0  0  0  0  0  0  0  0  0  0  0  0
    4.4689   -3.1165    0.9995 C   0  0  0  0  0  0  0  0  0  0  0  0
    5.7802   -2.8139    0.6265 N   0  0  0  0  0  0  0  0  0  0  0  0
    6.3053   -1.7281   -0.1008 C   0  0  0  0  0  0  0  0  0  0  0  0
    7.6596   -1.6724   -0.3330 N   0  0  0  0  0  0  0  0  0  0  0  0
    8.2649   -0.7078   -0.9985 C   0  0  0  0  0  0  0  0  0  0  0  0
    7.5107    0.3436   -1.5163 C   0  0  0  0  0  0  0  0  0  0  0  0
    6.1516    0.3040   -1.2930 C   0  0  0  0  0  0  0  0  0  0  0  0
    5.6123   -0.7167   -0.6035 N   0  0  0  0  0  0  0  0  0  0  0  0
    5.2995    1.3880   -1.8159 C   0  0  0  0  0  0  0  0  0  0  0  0
    3.9372    1.3924   -1.6203 C   0  0  0  0  0  0  0  0  0  0  0  0
    3.1716    2.4275   -2.1260 C   0  0  0  0  0  0  0  0  0  0  0  0
    3.7421    3.4579   -2.8234 C   0  0  0  0  0  0  0  0  0  0  0  0
    5.0550    3.4524   -3.0112 N   0  0  0  0  0  0  0  0  0  0  0  0
    5.8318    2.4362   -2.5183 C   0  0  0  0  0  0  0  0  0  0  0  0
    3.3751   -2.3514    0.6918 C   0  0  0  0  0  0  0  0  0  0  0  0
   -5.8097    1.1620    0.7622 C   0  0  0  0  0  0  0  0  0  0  0  0
   -7.2387    1.5701    1.1168 C   0  0  0  0  0  0  0  0  0  0  0  0
   -9.1142    3.5221    1.9808 H   0  0  0  0  0  0  0  0  0  0  0  0
   -9.3769    2.7072    0.3676 H   0  0  0  0  0  0  0  0  0  0  0  0
   -8.7643    4.4440    0.4847 H   0  0  0  0  0  0  0  0  0  0  0  0
   -5.6344    3.7578    0.0558 H   0  0  0  0  0  0  0  0  0  0  0  0
   -7.1406    4.3081   -0.7102 H   0  0  0  0  0  0  0  0  0  0  0  0
   -6.1750    2.5841   -2.1694 H   0  0  0  0  0  0  0  0  0  0  0  0
   -7.5469    1.7926   -1.3113 H   0  0  0  0  0  0  0  0  0  0  0  0
   -4.0371    2.6053   -0.4506 H   0  0  0  0  0  0  0  0  0  0  0  0
   -4.1471    1.8144   -2.0969 H   0  0  0  0  0  0  0  0  0  0  0  0
   -1.7746    2.1248   -0.3233 H   0  0  0  0  0  0  0  0  0  0  0  0
   -0.0855    0.5909    0.3886 H   0  0  0  0  0  0  0  0  0  0  0  0
   -2.8828   -2.6144   -0.0116 H   0  0  0  0  0  0  0  0  0  0  0  0
   -4.6466   -1.0312   -0.7500 H   0  0  0  0  0  0  0  0  0  0  0  0
    1.2887   -0.8278    0.3716 H   0  0  0  0  0  0  0  0  0  0  0  0
    0.9348   -4.1347    2.1386 H   0  0  0  0  0  0  0  0  0  0  0  0
    2.8613   -5.5326    2.6959 H   0  0  0  0  0  0  0  0  0  0  0  0
    5.0687   -5.9213    2.8820 H   0  0  0  0  0  0  0  0  0  0  0  0
    6.2218   -4.6050    2.6395 H   0  0  0  0  0  0  0  0  0  0  0  0
    5.8132   -5.7440    1.2725 H   0  0  0  0  0  0  0  0  0  0  0  0
    6.5390   -3.5258    0.9416 H   0  0  0  0  0  0  0  0  0  0  0  0
    9.3489   -0.6840   -1.1721 H   0  0  0  0  0  0  0  0  0  0  0  0
    7.9899    1.1420   -2.0641 H   0  0  0  0  0  0  0  0  0  0  0  0
    3.4963    0.5760   -1.0694 H   0  0  0  0  0  0  0  0  0  0  0  0
    2.0921    2.3921   -1.9481 H   0  0  0  0  0  0  0  0  0  0  0  0
    3.1033    4.2511   -3.2035 H   0  0  0  0  0  0  0  0  0  0  0  0
    6.8769    2.5525   -2.7398 H   0  0  0  0  0  0  0  0  0  0  0  0
    3.4595   -1.4371    0.1220 H   0  0  0  0  0  0  0  0  0  0  0  0
   -5.0883    1.8684    1.2308 H   0  0  0  0  0  0  0  0  0  0  0  0
   -5.5964    0.1363    1.1045 H   0  0  0  0  0  0  0  0  0  0  0  0
   -7.3999    1.3363    2.1888 H   0  0  0  0  0  0  0  0  0  0  0  0
   -7.9447    0.9768    0.5168 H   0  0  0  0  0  0  0  0  0  0  0  0
  1  2  1  0
  2  3  1  0
  3  4  1  0
  4  5  1  0
  5  6  1  0
  6  7  1  0
  7  8  2  0
  8  9  1  0
  9 10  2  0
 10 11  1  0
 11 12  2  0
 10 13  1  0
 13 14  2  0
 13 15  1  0
 15 16  1  0
 16 17  2  0
 17 18  1  0
 18 19  2  0
 19 20  1  0
 19 21  1  0
 21 22  1  0
 22 23  1  0
 23 24  2  0
 24 25  1  0
 25 26  2  0
 26 27  1  0
 27 28  2  0
 27 29  1  0
 29 30  2  0
 30 31  1  0
 31 32  2  0
 32 33  1  0
 33 34  2  0
 21 35  2  0
  5 36  1  0
 36 37  1  0
 37  2  1  0
 12  7  1  0
 35 16  1  0
 28 23  1  0
 34 29  1  0
  1 38  1  0
  1 39  1  0
  1 40  1  0
  3 41  1  0
  3 42  1  0
  4 43  1  0
  4 44  1  0
  6 45  1  0
  6 46  1  0
  8 47  1  0
  9 48  1  0
 11 49  1  0
 12 50  1  0
 15 51  1  0
 17 52  1  0
 18 53  1  0
 20 54  1  0
 20 55  1  0
 20 56  1  0
 22 57  1  0
 25 58  1  0
 26 59  1  0
 30 60  1  0
 31 61  1  0
 32 62  1  0
 34 63  1  0
 35 64  1  0
 36 65  1  0
 36 66  1  0
 37 67  1  0
 37 68  1  0
M  END
$$$$
[H]c1nc(N([H])C(=O)c2c([H])c(O[C@@]([H])(C([H])([H])[H])C([H])([H])OC([H])([H])[H])c([H])c(O[C@]([H])(C([H])([H])[H])C(C([H])([H])[H])(C([H])([H])[H])C([H])([H])[H])c2[H])c([H])c([H])c1C#N
     RDKit          3D

 59 60  0  0  0  0  0  0  0  0999 V2000
   -2.5204    7.2022   -0.9558 C   0  0  0  0  0  0  0  0  0  0  0  0
   -2.5269    6.0694   -0.1520 O   0  0  0  0  0  0  0  0  0  0  0  0
   -1.2776    5.4570   -0.1674 C   0  0  0  0  0  0  0  0  0  0  0  0
   -1.3829    4.2358    0.7377 C   0  0  2  0  0  0  0  0  0  0  0  0
   -1.6789    4.7475    2.1606 C   0  0  0  0  0  0  0  0  0  0  0  0
   -0.2067    3.5250    0.8155 O   0  0  0  0  0  0  0  0  0  0  0  0
   -0.0741    2.1980    0.4945 C   0  0  0  0  0  0  0  0  0  0  0  0
   -1.0833    1.3929    0.0542 C   0  0  0  0  0  0  0  0  0  0  0  0
   -0.9080    0.0310   -0.2658 C   0  0  0  0  0  0  0  0  0  0  0  0
   -1.9950   -0.6865   -0.7006 O   0  0  0  0  0  0  0  0  0  0  0  0
   -1.9942   -2.0057   -1.0485 C   0  0  2  0  0  0  0  0  0  0  0  0
   -2.5327   -2.2668   -2.4510 C   0  0  0  0  0  0  0  0  0  0  0  0
   -2.9101   -2.8492   -0.1383 C   0  0  0  0  0  0  0  0  0  0  0  0
   -2.4479   -2.7507    1.2946 C   0  0  0  0  0  0  0  0  0  0  0  0
   -2.8556   -4.2566   -0.6711 C   0  0  0  0  0  0  0  0  0  0  0  0
   -4.3031   -2.3115   -0.3000 C   0  0  0  0  0  0  0  0  0  0  0  0
    0.3761   -0.4570   -0.1049 C   0  0  0  0  0  0  0  0  0  0  0  0
    1.4333    0.2999    0.3334 C   0  0  0  0  0  0  0  0  0  0  0  0
    1.1982    1.6142    0.6273 C   0  0  0  0  0  0  0  0  0  0  0  0
    2.7891   -0.2344    0.4927 C   0  0  0  0  0  0  0  0  0  0  0  0
    3.5890    0.5091    1.0876 O   0  0  0  0  0  0  0  0  0  0  0  0
    3.1524   -1.4845    0.0112 N   0  0  0  0  0  0  0  0  0  0  0  0
    4.4428   -2.0555    0.1339 C   0  0  0  0  0  0  0  0  0  0  0  0
    5.5381   -1.5093    0.7245 C   0  0  0  0  0  0  0  0  0  0  0  0
    6.7799   -2.1641    0.7941 C   0  0  0  0  0  0  0  0  0  0  0  0
    6.9289   -3.4140    0.2505 C   0  0  0  0  0  0  0  0  0  0  0  0
    5.8020   -3.9445   -0.3426 C   0  0  0  0  0  0  0  0  0  0  0  0
    4.6358   -3.3166   -0.4017 N   0  0  0  0  0  0  0  0  0  0  0  0
    8.1669   -4.1376    0.2864 C   0  0  0  0  0  0  0  0  0  0  0  0
    9.1799   -4.7078    0.3181 N   0  0  0  0  0  0  0  0  0  0  0  0
   -3.5163    7.6827   -0.9404 H   0  0  0  0  0  0  0  0  0  0  0  0
   -2.2524    6.8882   -1.9790 H   0  0  0  0  0  0  0  0  0  0  0  0
   -1.8063    7.9708   -0.5905 H   0  0  0  0  0  0  0  0  0  0  0  0
   -1.0379    5.1485   -1.1956 H   0  0  0  0  0  0  0  0  0  0  0  0
   -0.4954    6.1555    0.1980 H   0  0  0  0  0  0  0  0  0  0  0  0
   -2.2319    3.6504    0.3620 H   0  0  0  0  0  0  0  0  0  0  0  0
   -0.9298    5.5118    2.4004 H   0  0  0  0  0  0  0  0  0  0  0  0
   -2.6986    5.1685    2.1649 H   0  0  0  0  0  0  0  0  0  0  0  0
   -1.6100    3.8365    2.7980 H   0  0  0  0  0  0  0  0  0  0  0  0
   -2.0916    1.7601   -0.0761 H   0  0  0  0  0  0  0  0  0  0  0  0
   -0.9976   -2.4626   -0.9408 H   0  0  0  0  0  0  0  0  0  0  0  0
   -3.6275   -2.2125   -2.4049 H   0  0  0  0  0  0  0  0  0  0  0  0
   -2.1872   -1.5450   -3.1879 H   0  0  0  0  0  0  0  0  0  0  0  0
   -2.1693   -3.2836   -2.7232 H   0  0  0  0  0  0  0  0  0  0  0  0
   -2.9251   -3.5634    1.8652 H   0  0  0  0  0  0  0  0  0  0  0  0
   -1.3555   -2.9420    1.3214 H   0  0  0  0  0  0  0  0  0  0  0  0
   -2.7430   -1.7891    1.7118 H   0  0  0  0  0  0  0  0  0  0  0  0
   -3.1517   -4.9854    0.1102 H   0  0  0  0  0  0  0  0  0  0  0  0
   -1.8383   -4.4593   -1.0748 H   0  0  0  0  0  0  0  0  0  0  0  0
   -3.5341   -4.2924   -1.5667 H   0  0  0  0  0  0  0  0  0  0  0  0
   -4.3255   -1.2607   -0.6736 H   0  0  0  0  0  0  0  0  0  0  0  0
   -4.9289   -2.9178   -1.0004 H   0  0  0  0  0  0  0  0  0  0  0  0
   -4.8466   -2.3495    0.6767 H   0  0  0  0  0  0  0  0  0  0  0  0
    0.5381   -1.4844   -0.3352 H   0  0  0  0  0  0  0  0  0  0  0  0
    1.9955    2.2683    0.9796 H   0  0  0  0  0  0  0  0  0  0  0  0
    2.3996   -2.0648   -0.4929 H   0  0  0  0  0  0  0  0  0  0  0  0
    5.4891   -0.5310    1.1709 H   0  0  0  0  0  0  0  0  0  0  0  0
    7.6238   -1.6812    1.2782 H   0  0  0  0  0  0  0  0  0  0  0  0
    5.9392   -4.9464   -0.7723 H   0  0  0  0  0  0  0  0  0  0  0  0
  1  2  1  0
  2  3  1  0
  3  4  1  0
  4  5  1  0
  4  6  1  0
  6  7  1  0
  7  8  2  0
  8  9  1  0
  9 10  1  0
 10 11  1  0
 11 12  1  0
 11 13  1  0
 13 14  1  0
 13 15  1  0
 13 16  1  0
  9 17  2  0
 17 18  1  0
 18 19  2  0
 18 20  1  0
 20 21  2  0
 20 22  1  0
 22 23  1  0
 23 24  2  0
 24 25  1  0
 25 26  2  0
 26 27  1  0
 27 28  2  0
 26 29  1  0
 29 30  3  0
 19  7  1  0
 28 23  1  0
  1 31  1  0
  1 32  1  0
  1 33  1  0
  3 34  1  0
  3 35  1  0
  4 36  1  6
  5 37  1  0
  5 38  1  0
  5 39  1  0
  8 40  1  0
 11 41  1  6
 12 42  1  0
 12 43  1  0
 12 44  1  0
 14 45  1  0
 14 46  1  0
 14 47  1  0
 15 48  1  0
 15 49  1  0
 15 50  1  0
 16 51  1  0
 16 52  1  0
 16 53  1  0
 17 54  1  0
 19 55  1  0
 22 56  1  0
 24 57  1  0
 25 58  1  0
 27 59  1  0
M  END
$$$$
[H]c1nc(OC([H])([H])[H])c(N2C([H])([H])C([H])([H])OC([H])([H])C2([H])[H])c([H])c1-c1c(C([H])([H])[H])nc([H])c(N([H])C(=O)c2c([H])c([H])c([H])c(C(F)(F)F)c2[H])c1[H]
     RDKit          3D

 57 60  0  0  0  0  0  0  0  0999 V2000
   -5.6817   -3.2335    0.4692 C   0  0  0  0  0  0  0  0  0  0  0  0
   -5.4177   -1.8412    0.4675 O   0  0  0  0  0  0  0  0  0  0  0  0
   -4.0809   -1.4646    0.3333 C   0  0  0  0  0  0  0  0  0  0  0  0
   -3.0847   -2.3418    0.2068 N   0  0  0  0  0  0  0  0  0  0  0  0
   -1.8309   -1.9394    0.0670 C   0  0  0  0  0  0  0  0  0  0  0  0
   -1.5194   -0.5870    0.0482 C   0  0  0  0  0  0  0  0  0  0  0  0
   -2.5509    0.3199    0.1875 C   0  0  0  0  0  0  0  0  0  0  0  0
   -3.8742   -0.0884    0.3313 C   0  0  0  0  0  0  0  0  0  0  0  0
   -4.8888    0.8844    0.3870 N   0  0  0  0  0  0  0  0  0  0  0  0
   -5.1029    1.7348    1.4925 C   0  0  0  0  0  0  0  0  0  0  0  0
   -6.3734    2.5321    1.4348 C   0  0  0  0  0  0  0  0  0  0  0  0
   -7.1206    2.4218    0.2950 O   0  0  0  0  0  0  0  0  0  0  0  0
   -7.1518    1.1855   -0.3015 C   0  0  0  0  0  0  0  0  0  0  0  0
   -5.7271    0.9605   -0.8363 C   0  0  0  0  0  0  0  0  0  0  0  0
   -0.1709   -0.1672   -0.2745 C   0  0  0  0  0  0  0  0  0  0  0  0
    0.9684   -0.8068    0.2493 C   0  0  0  0  0  0  0  0  0  0  0  0
    2.2067   -0.4143   -0.1244 C   0  0  0  0  0  0  0  0  0  0  0  0
    3.4823   -1.0315    0.1689 N   0  0  0  0  0  0  0  0  0  0  0  0
    4.5746   -0.2282    0.4713 C   0  0  0  0  0  0  0  0  0  0  0  0
    4.3570    1.0339    0.6188 O   0  0  0  0  0  0  0  0  0  0  0  0
    5.9564   -0.6305    0.6218 C   0  0  0  0  0  0  0  0  0  0  0  0
    6.4176   -1.9166    0.6793 C   0  0  0  0  0  0  0  0  0  0  0  0
    7.7975   -2.2067    0.6815 C   0  0  0  0  0  0  0  0  0  0  0  0
    8.7187   -1.1756    0.6260 C   0  0  0  0  0  0  0  0  0  0  0  0
    8.2972    0.1222    0.5679 C   0  0  0  0  0  0  0  0  0  0  0  0
    6.9391    0.3808    0.5694 C   0  0  0  0  0  0  0  0  0  0  0  0
    9.2131    1.3003    0.4640 C   0  0  0  0  0  0  0  0  0  0  0  0
    9.1003    1.9831    1.6638 F   0  0  0  0  0  0  0  0  0  0  0  0
    8.6564    2.1476   -0.5125 F   0  0  0  0  0  0  0  0  0  0  0  0
   10.4947    0.9807    0.1485 F   0  0  0  0  0  0  0  0  0  0  0  0
    2.3707    0.6648   -1.0512 C   0  0  0  0  0  0  0  0  0  0  0  0
    1.2894    1.2487   -1.5278 N   0  0  0  0  0  0  0  0  0  0  0  0
    0.0255    0.8552   -1.1635 C   0  0  0  0  0  0  0  0  0  0  0  0
   -1.0853    1.5525   -1.8451 C   0  0  0  0  0  0  0  0  0  0  0  0
   -6.7266   -3.4558    0.6747 H   0  0  0  0  0  0  0  0  0  0  0  0
   -4.9355   -3.6646    1.1710 H   0  0  0  0  0  0  0  0  0  0  0  0
   -5.3964   -3.6331   -0.5411 H   0  0  0  0  0  0  0  0  0  0  0  0
   -1.0182   -2.6743   -0.0364 H   0  0  0  0  0  0  0  0  0  0  0  0
   -2.3826    1.3698    0.2439 H   0  0  0  0  0  0  0  0  0  0  0  0
   -4.2036    2.4153    1.5959 H   0  0  0  0  0  0  0  0  0  0  0  0
   -5.1340    1.1570    2.4308 H   0  0  0  0  0  0  0  0  0  0  0  0
   -7.0468    2.3811    2.2998 H   0  0  0  0  0  0  0  0  0  0  0  0
   -6.1013    3.6271    1.5026 H   0  0  0  0  0  0  0  0  0  0  0  0
   -7.7937    1.2411   -1.2108 H   0  0  0  0  0  0  0  0  0  0  0  0
   -7.4601    0.3902    0.3926 H   0  0  0  0  0  0  0  0  0  0  0  0
   -5.4601    1.9176   -1.3529 H   0  0  0  0  0  0  0  0  0  0  0  0
   -5.6501    0.0726   -1.4418 H   0  0  0  0  0  0  0  0  0  0  0  0
    0.8450   -1.6448    0.9594 H   0  0  0  0  0  0  0  0  0  0  0  0
    3.5365   -2.0519    0.1460 H   0  0  0  0  0  0  0  0  0  0  0  0
    5.6953   -2.7395    0.7224 H   0  0  0  0  0  0  0  0  0  0  0  0
    8.1602   -3.2226    0.7153 H   0  0  0  0  0  0  0  0  0  0  0  0
    9.8046   -1.4014    0.6100 H   0  0  0  0  0  0  0  0  0  0  0  0
    6.6005    1.4007    0.5305 H   0  0  0  0  0  0  0  0  0  0  0  0
    3.3612    0.9463   -1.3473 H   0  0  0  0  0  0  0  0  0  0  0  0
   -1.2924    2.5095   -1.3444 H   0  0  0  0  0  0  0  0  0  0  0  0
   -0.6600    1.8844   -2.8621 H   0  0  0  0  0  0  0  0  0  0  0  0
   -1.9465    0.9398   -2.1022 H   0  0  0  0  0  0  0  0  0  0  0  0
  1  2  1  0
  2  3  1  0
  3  4  2  0
  4  5  1  0
  5  6  2  0
  6  7  1  0
  7  8  2  0
  8  9  1  0
  9 10  1  0
 10 11  1  0
 11 12  1  0
 12 13  1  0
 13 14  1  0
  6 15  1  0
 15 16  2  0
 16 17  1  0
 17 18  1  0
 18 19  1  0
 19 20  2  0
 19 21  1  0
 21 22  2  0
 22 23  1  0
 23 24  2  0
 24 25  1  0
 25 26  2  0
 25 27  1  0
 27 28  1  0
 27 29  1  0
 27 30  1  0
 17 31  2  0
 31 32  1  0
 32 33  2  0
 33 34  1  0
  8  3  1  0
 14  9  1  0
 33 15  1  0
 26 21  1  0
  1 35  1  0
  1 36  1  0
  1 37  1  0
  5 38  1  0
  7 39  1  0
 10 40  1  0
 10 41  1  0
 11 42  1  0
 11 43  1  0
 13 44  1  0
 13 45  1  0
 14 46  1  0
 14 47  1  0
 16 48  1  0
 18 49  1  0
 22 50  1  0
 23 51  1  0
 24 52  1  0
 26 53  1  0
 31 54  1  0
 34 55  1  0
 34 56  1  0
 34 57  1  0
M  END
$$$$
[H]c1c([H])c(N([H])C(=O)c2c(C([H])([H])[H])c(C(=O)C(=O)N([H])C3(C([H])([H])[H])C([H])([H])OC3([H])[H])c3n2C([H])([H])C([H])([H])C3([H])[H])c([H])c(Cl)c1F
     RDKit          3D

 51 54  0  0  0  0  0  0  0  0999 V2000
   -0.2568    1.9049    1.2880 C   0  0  0  0  0  0  0  0  0  0  0  0
   -0.2817    0.4536    0.8807 C   0  0  0  0  0  0  0  0  0  0  0  0
    0.7562   -0.4339    0.9772 C   0  0  0  0  0  0  0  0  0  0  0  0
    2.0917   -0.1898    1.4810 C   0  0  0  0  0  0  0  0  0  0  0  0
    2.2976   -0.3697    2.7000 O   0  0  0  0  0  0  0  0  0  0  0  0
    3.1405    0.2489    0.5807 C   0  0  0  0  0  0  0  0  0  0  0  0
    2.8857    0.4181   -0.6477 O   0  0  0  0  0  0  0  0  0  0  0  0
    4.4476    0.4894    1.0652 N   0  0  0  0  0  0  0  0  0  0  0  0
    5.4845    0.9220    0.1806 C   0  0  0  0  0  0  0  0  0  0  0  0
    5.2415    2.2187   -0.5266 C   0  0  0  0  0  0  0  0  0  0  0  0
    6.8721    0.8010    0.8121 C   0  0  0  0  0  0  0  0  0  0  0  0
    6.8434   -0.5489    0.4475 O   0  0  0  0  0  0  0  0  0  0  0  0
    6.1025   -0.1676   -0.6730 C   0  0  0  0  0  0  0  0  0  0  0  0
    0.3000   -1.6393    0.4977 C   0  0  0  0  0  0  0  0  0  0  0  0
    0.7156   -3.0467    0.2634 C   0  0  0  0  0  0  0  0  0  0  0  0
   -0.3253   -3.5581   -0.6818 C   0  0  0  0  0  0  0  0  0  0  0  0
   -1.5202   -2.6889   -0.4140 C   0  0  0  0  0  0  0  0  0  0  0  0
   -0.9763   -1.4524    0.1300 N   0  0  0  0  0  0  0  0  0  0  0  0
   -1.3826   -0.1921    0.3438 C   0  0  0  0  0  0  0  0  0  0  0  0
   -2.6759    0.4632    0.0920 C   0  0  0  0  0  0  0  0  0  0  0  0
   -2.7117    1.7364    0.2220 O   0  0  0  0  0  0  0  0  0  0  0  0
   -3.8258   -0.2637   -0.2725 N   0  0  0  0  0  0  0  0  0  0  0  0
   -5.0921    0.2856   -0.5431 C   0  0  0  0  0  0  0  0  0  0  0  0
   -6.2416   -0.5262   -0.4902 C   0  0  0  0  0  0  0  0  0  0  0  0
   -7.5009   -0.0582   -0.7654 C   0  0  0  0  0  0  0  0  0  0  0  0
   -7.7043    1.2544   -1.1136 C   0  0  0  0  0  0  0  0  0  0  0  0
   -8.9374    1.7518   -1.3923 F   0  0  0  0  0  0  0  0  0  0  0  0
   -6.6048    2.0714   -1.1746 C   0  0  0  0  0  0  0  0  0  0  0  0
   -6.8501    3.7471   -1.6172 Cl  0  0  0  0  0  0  0  0  0  0  0  0
   -5.3132    1.5864   -0.8914 C   0  0  0  0  0  0  0  0  0  0  0  0
    0.7099    2.1177    1.7418 H   0  0  0  0  0  0  0  0  0  0  0  0
   -1.0555    2.1182    2.0267 H   0  0  0  0  0  0  0  0  0  0  0  0
   -0.3994    2.5706    0.4283 H   0  0  0  0  0  0  0  0  0  0  0  0
    4.6476    0.3478    2.0752 H   0  0  0  0  0  0  0  0  0  0  0  0
    5.9569    2.9734   -0.1658 H   0  0  0  0  0  0  0  0  0  0  0  0
    4.1819    2.5221   -0.3518 H   0  0  0  0  0  0  0  0  0  0  0  0
    5.3467    2.1367   -1.6346 H   0  0  0  0  0  0  0  0  0  0  0  0
    6.8815    0.9793    1.9002 H   0  0  0  0  0  0  0  0  0  0  0  0
    7.6621    1.3125    0.2303 H   0  0  0  0  0  0  0  0  0  0  0  0
    5.4093   -0.9183   -1.0702 H   0  0  0  0  0  0  0  0  0  0  0  0
    6.7778    0.2614   -1.4261 H   0  0  0  0  0  0  0  0  0  0  0  0
    0.6713   -3.6110    1.2203 H   0  0  0  0  0  0  0  0  0  0  0  0
    1.7392   -3.0609   -0.1708 H   0  0  0  0  0  0  0  0  0  0  0  0
   -0.5686   -4.6260   -0.5002 H   0  0  0  0  0  0  0  0  0  0  0  0
    0.0213   -3.4417   -1.7300 H   0  0  0  0  0  0  0  0  0  0  0  0
   -2.0606   -2.4775   -1.3925 H   0  0  0  0  0  0  0  0  0  0  0  0
   -2.1920   -3.1509    0.3200 H   0  0  0  0  0  0  0  0  0  0  0  0
   -3.7547   -1.3153   -0.3453 H   0  0  0  0  0  0  0  0  0  0  0  0
   -6.0591   -1.5627   -0.2117 H   0  0  0  0  0  0  0  0  0  0  0  0
   -8.3612   -0.7058   -0.7160 H   0  0  0  0  0  0  0  0  0  0  0  0
   -4.5327    2.3130   -0.9865 H   0  0  0  0  0  0  0  0  0  0  0  0
  1  2  1  0
  2  3  1  0
  3  4  1  0
  4  5  2  0
  4  6  1  0
  6  7  2  0
  6  8  1  0
  8  9  1  0
  9 10  1  0
  9 11  1  0
 11 12  1  0
 12 13  1  0
  3 14  2  0
 14 15  1  0
 15 16  1  0
 16 17  1  0
 17 18  1  0
 18 19  1  0
 19 20  1  0
 20 21  2  0
 20 22  1  0
 22 23  1  0
 23 24  2  0
 24 25  1  0
 25 26  2  0
 26 27  1  0
 26 28  1  0
 28 29  1  0
 28 30  2  0
 19  2  2  0
 30 23  1  0
 13  9  1  0
 18 14  1  0
  1 31  1  0
  1 32  1  0
  1 33  1  0
  8 34  1  0
 10 35  1  0
 10 36  1  0
 10 37  1  0
 11 38  1  0
 11 39  1  0
 13 40  1  0
 13 41  1  0
 15 42  1  0
 15 43  1  0
 16 44  1  0
 16 45  1  0
 17 46  1  0
 17 47  1  0
 22 48  1  0
 24 49  1  0
 25 50  1  0
 30 51  1  0
M  END
$$$$
[H]C([H])=C([H])C(=O)N1C([H])([H])C([H])([H])C([H])([H])[C@@]([H])(N([H])c2c(F)c([H])c(C(=O)N([H])[H])c3c2c(C([H])([H])[H])c(C([H])([H])[H])n3[H])C1([H])[H]
     RDKit          3D

 49 51  0  0  0  0  0  0  0  0999 V2000
    2.9206    3.7458    0.8417 C   0  0  0  0  0  0  0  0  0  0  0  0
    2.8234    2.3313    0.4148 C   0  0  0  0  0  0  0  0  0  0  0  0
    3.8025    1.4119    0.4043 N   0  0  0  0  0  0  0  0  0  0  0  0
    3.3602    0.2282   -0.0453 C   0  0  0  0  0  0  0  0  0  0  0  0
    3.9063   -1.0108   -0.2756 C   0  0  0  0  0  0  0  0  0  0  0  0
    3.1304   -2.0581   -0.7893 C   0  0  0  0  0  0  0  0  0  0  0  0
    1.7991   -1.8804   -1.0780 C   0  0  0  0  0  0  0  0  0  0  0  0
    1.0581   -2.9083   -1.6136 F   0  0  0  0  0  0  0  0  0  0  0  0
    1.2439   -0.6409   -0.8472 C   0  0  0  0  0  0  0  0  0  0  0  0
   -0.1451   -0.5046   -1.1301 N   0  0  0  0  0  0  0  0  0  0  0  0
   -1.2202   -0.7592   -0.2232 C   0  0  2  0  0  0  0  0  0  0  0  0
   -1.3978   -2.1859    0.2259 C   0  0  0  0  0  0  0  0  0  0  0  0
   -2.5876   -2.3058    1.1780 C   0  0  0  0  0  0  0  0  0  0  0  0
   -3.1861   -0.9571    1.5093 C   0  0  0  0  0  0  0  0  0  0  0  0
   -3.4931   -0.2867    0.2804 N   0  0  0  0  0  0  0  0  0  0  0  0
   -2.5381   -0.3067   -0.8097 C   0  0  0  0  0  0  0  0  0  0  0  0
   -4.7159    0.4024    0.0980 C   0  0  0  0  0  0  0  0  0  0  0  0
   -5.5421    0.4215    1.0369 O   0  0  0  0  0  0  0  0  0  0  0  0
   -5.0204    1.0731   -1.1349 C   0  0  0  0  0  0  0  0  0  0  0  0
   -6.1623    1.7114   -1.2928 C   0  0  0  0  0  0  0  0  0  0  0  0
    2.0044    0.4249   -0.3350 C   0  0  0  0  0  0  0  0  0  0  0  0
    1.6663    1.7237   -0.0542 C   0  0  0  0  0  0  0  0  0  0  0  0
    0.3402    2.3420   -0.2480 C   0  0  0  0  0  0  0  0  0  0  0  0
    5.3055   -1.2464    0.0154 C   0  0  0  0  0  0  0  0  0  0  0  0
    5.8287   -2.5605   -0.2454 N   0  0  0  0  0  0  0  0  0  0  0  0
    6.0563   -0.3753    0.4723 O   0  0  0  0  0  0  0  0  0  0  0  0
    3.9987    4.0103    1.0055 H   0  0  0  0  0  0  0  0  0  0  0  0
    2.5149    4.3961    0.0293 H   0  0  0  0  0  0  0  0  0  0  0  0
    2.3571    3.8827    1.7726 H   0  0  0  0  0  0  0  0  0  0  0  0
    4.7987    1.6006    0.7129 H   0  0  0  0  0  0  0  0  0  0  0  0
    3.5772   -3.0266   -0.9651 H   0  0  0  0  0  0  0  0  0  0  0  0
   -0.3890   -0.1816   -2.1155 H   0  0  0  0  0  0  0  0  0  0  0  0
   -1.0829   -0.1224    0.6989 H   0  0  0  0  0  0  0  0  0  0  0  0
   -0.4840   -2.5062    0.7625 H   0  0  0  0  0  0  0  0  0  0  0  0
   -1.5929   -2.8879   -0.5822 H   0  0  0  0  0  0  0  0  0  0  0  0
   -3.3339   -2.9804    0.7493 H   0  0  0  0  0  0  0  0  0  0  0  0
   -2.2160   -2.7787    2.1046 H   0  0  0  0  0  0  0  0  0  0  0  0
   -2.5042   -0.3782    2.1307 H   0  0  0  0  0  0  0  0  0  0  0  0
   -4.1231   -1.1865    2.0837 H   0  0  0  0  0  0  0  0  0  0  0  0
   -2.8737   -1.0321   -1.5532 H   0  0  0  0  0  0  0  0  0  0  0  0
   -2.4000    0.6999   -1.2572 H   0  0  0  0  0  0  0  0  0  0  0  0
   -4.3027    1.0603   -1.9597 H   0  0  0  0  0  0  0  0  0  0  0  0
   -6.8722    1.7259   -0.4815 H   0  0  0  0  0  0  0  0  0  0  0  0
   -6.4085    2.2188   -2.2066 H   0  0  0  0  0  0  0  0  0  0  0  0
   -0.1462    2.0877   -1.1893 H   0  0  0  0  0  0  0  0  0  0  0  0
    0.4929    3.4496   -0.2514 H   0  0  0  0  0  0  0  0  0  0  0  0
   -0.2909    2.1430    0.6549 H   0  0  0  0  0  0  0  0  0  0  0  0
    5.4576   -3.3919    0.2717 H   0  0  0  0  0  0  0  0  0  0  0  0
    6.5859   -2.6317   -0.9676 H   0  0  0  0  0  0  0  0  0  0  0  0
  1  2  1  0
  2  3  1  0
  3  4  1  0
  4  5  2  0
  5  6  1  0
  6  7  2  0
  7  8  1  0
  7  9  1  0
  9 10  1  0
 10 11  1  0
 11 12  1  0
 12 13  1  0
 13 14  1  0
 14 15  1  0
 15 16  1  0
 15 17  1  0
 17 18  2  0
 17 19  1  0
 19 20  2  3
  9 21  2  0
 21 22  1  0
 22 23  1  0
  5 24  1  0
 24 25  1  0
 24 26  2  0
 22  2  2  0
 21  4  1  0
 16 11  1  0
  1 27  1  0
  1 28  1  0
  1 29  1  0
  3 30  1  0
  6 31  1  0
 10 32  1  0
 11 33  1  1
 12 34  1  0
 12 35  1  0
 13 36  1  0
 13 37  1  0
 14 38  1  0
 14 39  1  0
 16 40  1  0
 16 41  1  0
 19 42  1  0
 20 43  1  0
 20 44  1  0
 23 45  1  0
 23 46  1  0
 23 47  1  0
 25 48  1  0
 25 49  1  0
M  END
$$$$
[H]OC([H])([H])[C@@]([H])(C(=O)N([H])[C@]([H])(C(=O)N([H])[H])C([H])([H])c1c([H])c([H])c([H])c([H])c1[H])N([H])C(=O)[C@@]([H])(N([H])C(=O)[C@@]([H])(N([H])C(=O)[C@@]([H])(N([H])C(=O)[C@@]([H])(N([H])C(=O)[C@@]([H])(N([H])C(=O)C([H])([H])[H])C([H])([H])O[H])C([H])(C([H])([H])[H])C([H])([H])[H])C([H])([H])C([H])([H])C([H])([H])N=C(N([H])[H])N([H])[H])C([H])([H])O[H])C([H])(C([H])([H])[H])C([H])([H])[H]
     RDKit          3D

117117  0  0  0  0  0  0  0  0999 V2000
  -11.1800   -5.3675    1.6474 C   0  0  0  0  0  0  0  0  0  0  0  0
  -10.5529   -4.0647    1.6746 C   0  0  0  0  0  0  0  0  0  0  0  0
  -11.1884   -3.0167    1.9405 O   0  0  0  0  0  0  0  0  0  0  0  0
   -9.1370   -3.9362    1.3869 N   0  0  0  0  0  0  0  0  0  0  0  0
   -8.5190   -2.6451    1.4100 C   0  0  1  0  0  0  0  0  0  0  0  0
   -7.7963   -2.5926    2.8014 C   0  0  0  0  0  0  0  0  0  0  0  0
   -6.8619   -3.6073    2.9160 O   0  0  0  0  0  0  0  0  0  0  0  0
   -7.4458   -2.4722    0.4090 C   0  0  0  0  0  0  0  0  0  0  0  0
   -6.6620   -3.3824    0.1094 O   0  0  0  0  0  0  0  0  0  0  0  0
   -7.3458   -1.1809   -0.2150 N   0  0  0  0  0  0  0  0  0  0  0  0
   -6.2872   -0.9136   -1.1870 C   0  0  1  0  0  0  0  0  0  0  0  0
   -6.8200   -0.9124   -2.6092 C   0  0  0  0  0  0  0  0  0  0  0  0
   -7.4228   -2.2764   -2.9665 C   0  0  0  0  0  0  0  0  0  0  0  0
   -7.8530    0.1573   -2.7978 C   0  0  0  0  0  0  0  0  0  0  0  0
   -5.7741    0.4443   -0.8837 C   0  0  0  0  0  0  0  0  0  0  0  0
   -6.6516    1.3861   -0.6957 O   0  0  0  0  0  0  0  0  0  0  0  0
   -4.3934    0.7057   -0.7906 N   0  0  0  0  0  0  0  0  0  0  0  0
   -3.8428    1.9838   -0.4624 C   0  0  1  0  0  0  0  0  0  0  0  0
   -4.3057    2.6749    0.7538 C   0  0  0  0  0  0  0  0  0  0  0  0
   -3.7321    4.0758    0.8697 C   0  0  0  0  0  0  0  0  0  0  0  0
   -4.3545    4.7676    2.0977 C   0  0  0  0  0  0  0  0  0  0  0  0
   -5.7965    4.8705    1.8705 N   0  0  0  0  0  0  0  0  0  0  0  0
   -6.2798    5.9694    1.4187 C   0  0  0  0  0  0  0  0  0  0  0  0
   -7.6574    6.1173    1.1866 N   0  0  0  0  0  0  0  0  0  0  0  0
   -5.4083    7.0770    1.1369 N   0  0  0  0  0  0  0  0  0  0  0  0
   -2.3982    1.9626   -0.7608 C   0  0  0  0  0  0  0  0  0  0  0  0
   -2.0582    1.7730   -1.9398 O   0  0  0  0  0  0  0  0  0  0  0  0
   -1.4627    2.1357    0.2631 N   0  0  0  0  0  0  0  0  0  0  0  0
   -0.0540    2.2156    0.1656 C   0  0  1  0  0  0  0  0  0  0  0  0
    0.4984    2.6291    1.4948 C   0  0  0  0  0  0  0  0  0  0  0  0
    0.0923    1.6499    2.4788 O   0  0  0  0  0  0  0  0  0  0  0  0
    0.5625    0.9485   -0.3329 C   0  0  0  0  0  0  0  0  0  0  0  0
   -0.2136    0.0339   -0.6332 O   0  0  0  0  0  0  0  0  0  0  0  0
    1.9423    0.7676   -0.4724 N   0  0  0  0  0  0  0  0  0  0  0  0
    2.7513   -0.2824   -0.9138 C   0  0  1  0  0  0  0  0  0  0  0  0
    3.6175    0.0225   -2.1050 C   0  0  0  0  0  0  0  0  0  0  0  0
    4.5972    1.1460   -1.8507 C   0  0  0  0  0  0  0  0  0  0  0  0
    2.7276    0.5660   -3.2463 C   0  0  0  0  0  0  0  0  0  0  0  0
    3.7480   -0.6385    0.1813 C   0  0  0  0  0  0  0  0  0  0  0  0
    3.6529   -0.1114    1.3009 O   0  0  0  0  0  0  0  0  0  0  0  0
    4.7843   -1.5512   -0.0706 N   0  0  0  0  0  0  0  0  0  0  0  0
    5.8141   -1.9523    0.8824 C   0  0  1  0  0  0  0  0  0  0  0  0
    5.5771   -3.3656    1.3656 C   0  0  0  0  0  0  0  0  0  0  0  0
    5.5858   -4.3128    0.3754 O   0  0  0  0  0  0  0  0  0  0  0  0
    7.1273   -1.7605    0.2262 C   0  0  0  0  0  0  0  0  0  0  0  0
    7.1342   -1.3671   -0.9422 O   0  0  0  0  0  0  0  0  0  0  0  0
    8.3613   -2.0149    0.8714 N   0  0  0  0  0  0  0  0  0  0  0  0
    9.5998   -1.8247    0.0787 C   0  0  1  0  0  0  0  0  0  0  0  0
   10.1317   -0.4575    0.5197 C   0  0  0  0  0  0  0  0  0  0  0  0
   11.3273   -0.0097   -0.1747 C   0  0  0  0  0  0  0  0  0  0  0  0
   11.1649    0.6379   -1.3824 C   0  0  0  0  0  0  0  0  0  0  0  0
   12.2650    1.1266   -2.0496 C   0  0  0  0  0  0  0  0  0  0  0  0
   13.5444    0.9863   -1.5529 C   0  0  0  0  0  0  0  0  0  0  0  0
   13.6404    0.3277   -0.3404 C   0  0  0  0  0  0  0  0  0  0  0  0
   12.5899   -0.1697    0.3601 C   0  0  0  0  0  0  0  0  0  0  0  0
   10.4792   -2.9299    0.4426 C   0  0  0  0  0  0  0  0  0  0  0  0
   11.6817   -3.1577   -0.2909 N   0  0  0  0  0  0  0  0  0  0  0  0
   10.1649   -3.6913    1.4059 O   0  0  0  0  0  0  0  0  0  0  0  0
  -11.7173   -5.5065    0.6657 H   0  0  0  0  0  0  0  0  0  0  0  0
  -10.3695   -6.1566    1.6717 H   0  0  0  0  0  0  0  0  0  0  0  0
  -11.9242   -5.5532    2.4445 H   0  0  0  0  0  0  0  0  0  0  0  0
   -8.5940   -4.7746    1.1662 H   0  0  0  0  0  0  0  0  0  0  0  0
   -9.2266   -1.8122    1.3689 H   0  0  0  0  0  0  0  0  0  0  0  0
   -8.5724   -2.6951    3.5659 H   0  0  0  0  0  0  0  0  0  0  0  0
   -7.3116   -1.5946    2.8635 H   0  0  0  0  0  0  0  0  0  0  0  0
   -7.0929   -4.2418    3.6307 H   0  0  0  0  0  0  0  0  0  0  0  0
   -8.0023   -0.4196    0.0165 H   0  0  0  0  0  0  0  0  0  0  0  0
   -5.4891   -1.6521   -1.0988 H   0  0  0  0  0  0  0  0  0  0  0  0
   -5.9730   -0.7772   -3.2808 H   0  0  0  0  0  0  0  0  0  0  0  0
   -8.3281   -2.4008   -2.3625 H   0  0  0  0  0  0  0  0  0  0  0  0
   -6.6619   -3.0425   -2.7635 H   0  0  0  0  0  0  0  0  0  0  0  0
   -7.6815   -2.2446   -4.0418 H   0  0  0  0  0  0  0  0  0  0  0  0
   -8.4454    0.2467   -1.8518 H   0  0  0  0  0  0  0  0  0  0  0  0
   -7.3609    1.1075   -2.9961 H   0  0  0  0  0  0  0  0  0  0  0  0
   -8.5830   -0.1150   -3.6054 H   0  0  0  0  0  0  0  0  0  0  0  0
   -3.7489   -0.1023   -0.9999 H   0  0  0  0  0  0  0  0  0  0  0  0
   -4.3425    2.6665   -1.3078 H   0  0  0  0  0  0  0  0  0  0  0  0
   -5.4241    2.7349    0.8515 H   0  0  0  0  0  0  0  0  0  0  0  0
   -3.9816    2.1332    1.6835 H   0  0  0  0  0  0  0  0  0  0  0  0
   -2.6771    4.1129    1.0133 H   0  0  0  0  0  0  0  0  0  0  0  0
   -4.0280    4.6749   -0.0444 H   0  0  0  0  0  0  0  0  0  0  0  0
   -4.1474    4.1492    2.9649 H   0  0  0  0  0  0  0  0  0  0  0  0
   -3.9349    5.7765    2.1334 H   0  0  0  0  0  0  0  0  0  0  0  0
   -8.3763    5.7628    1.8519 H   0  0  0  0  0  0  0  0  0  0  0  0
   -7.9851    6.6001    0.3188 H   0  0  0  0  0  0  0  0  0  0  0  0
   -5.1606    7.3750    0.1886 H   0  0  0  0  0  0  0  0  0  0  0  0
   -5.0400    7.5596    1.9738 H   0  0  0  0  0  0  0  0  0  0  0  0
   -1.9055    2.1497    1.2662 H   0  0  0  0  0  0  0  0  0  0  0  0
    0.2133    2.9534   -0.6163 H   0  0  0  0  0  0  0  0  0  0  0  0
   -0.0239    3.5530    1.8100 H   0  0  0  0  0  0  0  0  0  0  0  0
    1.5718    2.8047    1.5584 H   0  0  0  0  0  0  0  0  0  0  0  0
    0.2986    0.7473    2.1711 H   0  0  0  0  0  0  0  0  0  0  0  0
    2.4845    1.6648   -0.1746 H   0  0  0  0  0  0  0  0  0  0  0  0
    2.1836   -1.1882   -1.1125 H   0  0  0  0  0  0  0  0  0  0  0  0
    4.1516   -0.8277   -2.4946 H   0  0  0  0  0  0  0  0  0  0  0  0
    5.3232    1.1446   -2.6850 H   0  0  0  0  0  0  0  0  0  0  0  0
    5.1896    0.9543   -0.9527 H   0  0  0  0  0  0  0  0  0  0  0  0
    4.1324    2.1570   -1.8591 H   0  0  0  0  0  0  0  0  0  0  0  0
    3.2913    1.2920   -3.8538 H   0  0  0  0  0  0  0  0  0  0  0  0
    1.7667    0.9648   -2.8369 H   0  0  0  0  0  0  0  0  0  0  0  0
    2.4555   -0.2920   -3.8787 H   0  0  0  0  0  0  0  0  0  0  0  0
    4.8535   -2.0012   -1.0135 H   0  0  0  0  0  0  0  0  0  0  0  0
    5.7618   -1.3000    1.7619 H   0  0  0  0  0  0  0  0  0  0  0  0
    4.6462   -3.3355    1.9495 H   0  0  0  0  0  0  0  0  0  0  0  0
    6.3783   -3.6120    2.1017 H   0  0  0  0  0  0  0  0  0  0  0  0
    5.9800   -5.1793    0.5855 H   0  0  0  0  0  0  0  0  0  0  0  0
    8.4222   -2.3083    1.8450 H   0  0  0  0  0  0  0  0  0  0  0  0
    9.3140   -1.7804   -0.9935 H   0  0  0  0  0  0  0  0  0  0  0  0
   10.3487   -0.5620    1.6339 H   0  0  0  0  0  0  0  0  0  0  0  0
    9.2836    0.2504    0.4824 H   0  0  0  0  0  0  0  0  0  0  0  0
   10.1576    0.7703   -1.8209 H   0  0  0  0  0  0  0  0  0  0  0  0
   12.1047    1.6228   -2.9782 H   0  0  0  0  0  0  0  0  0  0  0  0
   14.4345    1.3680   -2.0880 H   0  0  0  0  0  0  0  0  0  0  0  0
   14.6444    0.2081    0.0946 H   0  0  0  0  0  0  0  0  0  0  0  0
   12.6842   -0.6986    1.3144 H   0  0  0  0  0  0  0  0  0  0  0  0
   11.8142   -2.9291   -1.2994 H   0  0  0  0  0  0  0  0  0  0  0  0
   12.5113   -3.5958    0.2067 H   0  0  0  0  0  0  0  0  0  0  0  0
  1  2  1  0
  2  3  2  0
  2  4  1  0
  4  5  1  0
  5  6  1  0
  6  7  1  0
  5  8  1  0
  8  9  2  0
  8 10  1  0
 10 11  1  0
 11 12  1  0
 12 13  1  0
 12 14  1  0
 11 15  1  0
 15 16  2  0
 15 17  1  0
 17 18  1  0
 18 19  1  0
 19 20  1  0
 20 21  1  0
 21 22  1  0
 22 23  2  3
 23 24  1  0
 23 25  1  0
 18 26  1  0
 26 27  2  0
 26 28  1  0
 28 29  1  0
 29 30  1  0
 30 31  1  0
 29 32  1  0
 32 33  2  0
 32 34  1  0
 34 35  1  0
 35 36  1  0
 36 37  1  0
 36 38  1  0
 35 39  1  0
 39 40  2  0
 39 41  1  0
 41 42  1  0
 42 43  1  0
 43 44  1  0
 42 45  1  0
 45 46  2  0
 45 47  1  0
 47 48  1  0
 48 49  1  0
 49 50  1  0
 50 51  2  0
 51 52  1  0
 52 53  2  0
 53 54  1  0
 54 55  2  0
 48 56  1  0
 56 57  1  0
 56 58  2  0
 55 50  1  0
  1 59  1  0
  1 60  1  0
  1 61  1  0
  4 62  1  0
  5 63  1  1
  6 64  1  0
  6 65  1  0
  7 66  1  0
 10 67  1  0
 11 68  1  6
 12 69  1  0
 13 70  1  0
 13 71  1  0
 13 72  1  0
 14 73  1  0
 14 74  1  0
 14 75  1  0
 17 76  1  0
 18 77  1  6
 19 78  1  0
 19 79  1  0
 20 80  1  0
 20 81  1  0
 21 82  1  0
 21 83  1  0
 24 84  1  0
 24 85  1  0
 25 86  1  0
 25 87  1  0
 28 88  1  0
 29 89  1  6
 30 90  1  0
 30 91  1  0
 31 92  1  0
 34 93  1  0
 35 94  1  6
 36 95  1  0
 37 96  1  0
 37 97  1  0
 37 98  1  0
 38 99  1  0
 38100  1  0
 38101  1  0
 41102  1  0
 42103  1  1
 43104  1  0
 43105  1  0
 44106  1  0
 47107  1  0
 48108  1  6
 49109  1  0
 49110  1  0
 51111  1  0
 52112  1  0
 53113  1  0
 54114  1  0
 55115  1  0
 57116  1  0
 57117  1  0
M  END
$$$$
[H]c1nc(N([H])C(=O)c2c([H])c(O[C@@]([H])(C([H])([H])[H])C([H])([H])OC([H])([H])[H])c([H])c(O[C@@]([H])(C([H])([H])[H])C(C([H])([H])[H])(C([H])([H])[H])C([H])([H])[H])c2[H])sc1[H]
     RDKit          3D

 55 56  0  0  0  0  0  0  0  0999 V2000
    5.4941   -2.8986   -0.6471 C   0  0  0  0  0  0  0  0  0  0  0  0
    4.6906   -3.9942   -0.7874 O   0  0  0  0  0  0  0  0  0  0  0  0
    3.3702   -3.6978   -0.9483 C   0  0  0  0  0  0  0  0  0  0  0  0
    2.7774   -2.9330    0.2291 C   0  0  2  0  0  0  0  0  0  0  0  0
    2.9063   -3.7581    1.5078 C   0  0  0  0  0  0  0  0  0  0  0  0
    1.4458   -2.7132   -0.0622 O   0  0  0  0  0  0  0  0  0  0  0  0
    0.8462   -1.4898   -0.1204 C   0  0  0  0  0  0  0  0  0  0  0  0
   -0.5111   -1.4619   -0.4301 C   0  0  0  0  0  0  0  0  0  0  0  0
   -1.2469   -0.3026   -0.5239 C   0  0  0  0  0  0  0  0  0  0  0  0
   -2.5859   -0.4320   -0.8395 O   0  0  0  0  0  0  0  0  0  0  0  0
   -3.5185    0.5866   -0.9878 C   0  0  1  0  0  0  0  0  0  0  0  0
   -4.1492    0.4345   -2.3763 C   0  0  0  0  0  0  0  0  0  0  0  0
   -4.6582    0.2957   -0.0013 C   0  0  0  0  0  0  0  0  0  0  0  0
   -5.7297    1.3301   -0.0685 C   0  0  0  0  0  0  0  0  0  0  0  0
   -4.1235    0.2085    1.4102 C   0  0  0  0  0  0  0  0  0  0  0  0
   -5.1765   -1.0849   -0.3627 C   0  0  0  0  0  0  0  0  0  0  0  0
   -0.6122    0.8730   -0.3020 C   0  0  0  0  0  0  0  0  0  0  0  0
    0.7402    0.9055    0.0105 C   0  0  0  0  0  0  0  0  0  0  0  0
    1.4561   -0.2857    0.0976 C   0  0  0  0  0  0  0  0  0  0  0  0
    1.3720    2.1906    0.2387 C   0  0  0  0  0  0  0  0  0  0  0  0
    0.6767    3.2312    0.1267 O   0  0  0  0  0  0  0  0  0  0  0  0
    2.7423    2.3163    0.5827 N   0  0  0  0  0  0  0  0  0  0  0  0
    3.3177    3.6082    0.7974 C   0  0  0  0  0  0  0  0  0  0  0  0
    2.6551    4.7476    0.6987 N   0  0  0  0  0  0  0  0  0  0  0  0
    3.2640    5.8679    0.9122 C   0  0  0  0  0  0  0  0  0  0  0  0
    4.5938    5.8239    1.2372 C   0  0  0  0  0  0  0  0  0  0  0  0
    4.8846    4.1281    1.2128 S   0  0  0  0  0  0  0  0  0  0  0  0
    5.4199   -2.2305   -1.5395 H   0  0  0  0  0  0  0  0  0  0  0  0
    6.5495   -3.2755   -0.5987 H   0  0  0  0  0  0  0  0  0  0  0  0
    5.2758   -2.3104    0.2453 H   0  0  0  0  0  0  0  0  0  0  0  0
    2.8171   -4.6385   -1.1249 H   0  0  0  0  0  0  0  0  0  0  0  0
    3.1860   -3.0532   -1.8418 H   0  0  0  0  0  0  0  0  0  0  0  0
    3.3060   -1.9997    0.4113 H   0  0  0  0  0  0  0  0  0  0  0  0
    1.9807   -4.3635    1.6627 H   0  0  0  0  0  0  0  0  0  0  0  0
    2.9964   -3.0853    2.3794 H   0  0  0  0  0  0  0  0  0  0  0  0
    3.8077   -4.3944    1.4605 H   0  0  0  0  0  0  0  0  0  0  0  0
   -0.9877   -2.4198   -0.6016 H   0  0  0  0  0  0  0  0  0  0  0  0
   -3.1305    1.6009   -0.8370 H   0  0  0  0  0  0  0  0  0  0  0  0
   -5.0959   -0.1128   -2.3454 H   0  0  0  0  0  0  0  0  0  0  0  0
   -4.3061    1.4394   -2.8377 H   0  0  0  0  0  0  0  0  0  0  0  0
   -3.4611   -0.1057   -3.0575 H   0  0  0  0  0  0  0  0  0  0  0  0
   -5.6345    1.9885   -0.9557 H   0  0  0  0  0  0  0  0  0  0  0  0
   -5.6527    1.9849    0.8159 H   0  0  0  0  0  0  0  0  0  0  0  0
   -6.7403    0.8417   -0.0146 H   0  0  0  0  0  0  0  0  0  0  0  0
   -4.7810   -0.4895    1.9748 H   0  0  0  0  0  0  0  0  0  0  0  0
   -3.0982   -0.2363    1.4289 H   0  0  0  0  0  0  0  0  0  0  0  0
   -4.1610    1.1837    1.9366 H   0  0  0  0  0  0  0  0  0  0  0  0
   -5.2873   -1.7275    0.5422 H   0  0  0  0  0  0  0  0  0  0  0  0
   -6.1642   -1.0342   -0.8610 H   0  0  0  0  0  0  0  0  0  0  0  0
   -4.5011   -1.6264   -1.0490 H   0  0  0  0  0  0  0  0  0  0  0  0
   -1.1623    1.7942   -0.3686 H   0  0  0  0  0  0  0  0  0  0  0  0
    2.5013   -0.2574    0.3391 H   0  0  0  0  0  0  0  0  0  0  0  0
    3.3926    1.5049    0.6966 H   0  0  0  0  0  0  0  0  0  0  0  0
    2.7506    6.8483    0.8412 H   0  0  0  0  0  0  0  0  0  0  0  0
    5.2592    6.6785    1.4496 H   0  0  0  0  0  0  0  0  0  0  0  0
  1  2  1  0
  2  3  1  0
  3  4  1  0
  4  5  1  0
  4  6  1  0
  6  7  1  0
  7  8  2  0
  8  9  1  0
  9 10  1  0
 10 11  1  0
 11 12  1  0
 11 13  1  0
 13 14  1  0
 13 15  1  0
 13 16  1  0
  9 17  2  0
 17 18  1  0
 18 19  2  0
 18 20  1  0
 20 21  2  0
 20 22  1  0
 22 23  1  0
 23 24  2  0
 24 25  1  0
 25 26  2  0
 26 27  1  0
 19  7  1  0
 27 23  1  0
  1 28  1  0
  1 29  1  0
  1 30  1  0
  3 31  1  0
  3 32  1  0
  4 33  1  1
  5 34  1  0
  5 35  1  0
  5 36  1  0
  8 37  1  0
 11 38  1  1
 12 39  1  0
 12 40  1  0
 12 41  1  0
 14 42  1  0
 14 43  1  0
 14 44  1  0
 15 45  1  0
 15 46  1  0
 15 47  1  0
 16 48  1  0
 16 49  1  0
 16 50  1  0
 17 51  1  0
 19 52  1  0
 22 53  1  0
 25 54  1  0
 26 55  1  0
M  END
$$$$
[H]c1c([H])c(Cl)c(-c2c([H])c3c([H])nc(N([H])c4c([H])c([H])c(N5C([H])([H])C([H])([H])N(C([H])([H])[H])C([H])([H])C5([H])[H])c([H])c4OC([H])([H])[H])nc3n(C([H])([H])[H])c2=O)c(Cl)c1[H]
     RDKit          3D

 62 66  0  0  0  0  0  0  0  0999 V2000
    2.9878    1.9183   -3.7045 C   0  0  0  0  0  0  0  0  0  0  0  0
    1.9977    1.4133   -2.8410 O   0  0  0  0  0  0  0  0  0  0  0  0
    2.3269    0.6913   -1.6923 C   0  0  0  0  0  0  0  0  0  0  0  0
    3.6420    0.4632   -1.3889 C   0  0  0  0  0  0  0  0  0  0  0  0
    4.0203   -0.2418   -0.2694 C   0  0  0  0  0  0  0  0  0  0  0  0
    3.0465   -0.7341    0.5725 C   0  0  0  0  0  0  0  0  0  0  0  0
    1.7155   -0.5066    0.2702 C   0  0  0  0  0  0  0  0  0  0  0  0
    1.3314    0.1951   -0.8428 C   0  0  0  0  0  0  0  0  0  0  0  0
    0.0069    0.4648   -1.2202 N   0  0  0  0  0  0  0  0  0  0  0  0
   -1.1921    0.1454   -0.5306 C   0  0  0  0  0  0  0  0  0  0  0  0
   -1.2998   -0.4823    0.6332 N   0  0  0  0  0  0  0  0  0  0  0  0
   -2.4522   -0.7608    1.2604 C   0  0  0  0  0  0  0  0  0  0  0  0
   -3.6593   -0.3734    0.6699 C   0  0  0  0  0  0  0  0  0  0  0  0
   -4.8540   -0.6366    1.2826 C   0  0  0  0  0  0  0  0  0  0  0  0
   -6.0218   -0.2353    0.6715 C   0  0  0  0  0  0  0  0  0  0  0  0
   -7.3352   -0.4680    1.2520 C   0  0  0  0  0  0  0  0  0  0  0  0
   -7.9693    0.4076    2.1025 C   0  0  0  0  0  0  0  0  0  0  0  0
   -7.1468    1.8957    2.5169 Cl  0  0  0  0  0  0  0  0  0  0  0  0
   -9.2376    0.1192    2.6252 C   0  0  0  0  0  0  0  0  0  0  0  0
   -9.8796   -1.0549    2.2949 C   0  0  0  0  0  0  0  0  0  0  0  0
   -9.2397   -1.9255    1.4440 C   0  0  0  0  0  0  0  0  0  0  0  0
   -7.9861   -1.6366    0.9301 C   0  0  0  0  0  0  0  0  0  0  0  0
   -7.2319   -2.7853   -0.1442 Cl  0  0  0  0  0  0  0  0  0  0  0  0
   -5.9242    0.4175   -0.5393 C   0  0  0  0  0  0  0  0  0  0  0  0
   -7.0176    0.7831   -1.0940 O   0  0  0  0  0  0  0  0  0  0  0  0
   -4.7409    0.6540   -1.1019 N   0  0  0  0  0  0  0  0  0  0  0  0
   -4.7020    1.3399   -2.3720 C   0  0  0  0  0  0  0  0  0  0  0  0
   -3.5731    0.2716   -0.5240 C   0  0  0  0  0  0  0  0  0  0  0  0
   -2.3928    0.5166   -1.0931 N   0  0  0  0  0  0  0  0  0  0  0  0
    5.4106   -0.4541    0.0214 N   0  0  0  0  0  0  0  0  0  0  0  0
    6.3738    0.1632   -0.8316 C   0  0  0  0  0  0  0  0  0  0  0  0
    7.7976   -0.0752   -0.4728 C   0  0  0  0  0  0  0  0  0  0  0  0
    8.0157   -0.4571    0.8863 N   0  0  0  0  0  0  0  0  0  0  0  0
    7.7785    0.5918    1.8388 C   0  0  0  0  0  0  0  0  0  0  0  0
    7.2419   -1.6482    1.1664 C   0  0  0  0  0  0  0  0  0  0  0  0
    5.7918   -1.2701    1.1461 C   0  0  0  0  0  0  0  0  0  0  0  0
    2.5115    2.1776   -4.6895 H   0  0  0  0  0  0  0  0  0  0  0  0
    3.4313    2.8437   -3.2895 H   0  0  0  0  0  0  0  0  0  0  0  0
    3.7719    1.1492   -3.9417 H   0  0  0  0  0  0  0  0  0  0  0  0
    4.4519    0.8394   -2.0365 H   0  0  0  0  0  0  0  0  0  0  0  0
    3.3485   -1.2896    1.4540 H   0  0  0  0  0  0  0  0  0  0  0  0
    0.9889   -0.9081    0.9470 H   0  0  0  0  0  0  0  0  0  0  0  0
   -0.1267    0.9825   -2.1615 H   0  0  0  0  0  0  0  0  0  0  0  0
   -2.5083   -1.2706    2.2019 H   0  0  0  0  0  0  0  0  0  0  0  0
   -4.8889   -1.1450    2.2197 H   0  0  0  0  0  0  0  0  0  0  0  0
   -9.7247    0.8139    3.2917 H   0  0  0  0  0  0  0  0  0  0  0  0
  -10.8784   -1.2847    2.7056 H   0  0  0  0  0  0  0  0  0  0  0  0
   -9.7652   -2.8569    1.1902 H   0  0  0  0  0  0  0  0  0  0  0  0
   -5.5934    1.9813   -2.5272 H   0  0  0  0  0  0  0  0  0  0  0  0
   -3.7731    1.9410   -2.4713 H   0  0  0  0  0  0  0  0  0  0  0  0
   -4.7024    0.6084   -3.2276 H   0  0  0  0  0  0  0  0  0  0  0  0
    6.1747    1.2696   -0.8535 H   0  0  0  0  0  0  0  0  0  0  0  0
    6.2507   -0.1318   -1.9153 H   0  0  0  0  0  0  0  0  0  0  0  0
    8.2729   -0.8724   -1.1123 H   0  0  0  0  0  0  0  0  0  0  0  0
    8.3870    0.8414   -0.6939 H   0  0  0  0  0  0  0  0  0  0  0  0
    7.8740    0.1770    2.8695 H   0  0  0  0  0  0  0  0  0  0  0  0
    8.4964    1.4067    1.6894 H   0  0  0  0  0  0  0  0  0  0  0  0
    6.7592    1.0161    1.6758 H   0  0  0  0  0  0  0  0  0  0  0  0
    7.4853   -2.0378    2.1735 H   0  0  0  0  0  0  0  0  0  0  0  0
    7.4333   -2.3589    0.3526 H   0  0  0  0  0  0  0  0  0  0  0  0
    5.1518   -2.1844    1.1369 H   0  0  0  0  0  0  0  0  0  0  0  0
    5.5427   -0.7452    2.0895 H   0  0  0  0  0  0  0  0  0  0  0  0
  1  2  1  0
  2  3  1  0
  3  4  2  0
  4  5  1  0
  5  6  2  0
  6  7  1  0
  7  8  2  0
  8  9  1  0
  9 10  1  0
 10 11  2  0
 11 12  1  0
 12 13  2  0
 13 14  1  0
 14 15  2  0
 15 16  1  0
 16 17  2  0
 17 18  1  0
 17 19  1  0
 19 20  2  0
 20 21  1  0
 21 22  2  0
 22 23  1  0
 15 24  1  0
 24 25  2  0
 24 26  1  0
 26 27  1  0
 26 28  1  0
 28 29  2  0
  5 30  1  0
 30 31  1  0
 31 32  1  0
 32 33  1  0
 33 34  1  0
 33 35  1  0
 35 36  1  0
  8  3  1  0
 29 10  1  0
 36 30  1  0
 28 13  1  0
 22 16  1  0
  1 37  1  0
  1 38  1  0
  1 39  1  0
  4 40  1  0
  6 41  1  0
  7 42  1  0
  9 43  1  0
 12 44  1  0
 14 45  1  0
 19 46  1  0
 20 47  1  0
 21 48  1  0
 27 49  1  0
 27 50  1  0
 27 51  1  0
 31 52  1  0
 31 53  1  0
 32 54  1  0
 32 55  1  0
 34 56  1  0
 34 57  1  0
 34 58  1  0
 35 59  1  0
 35 60  1  0
 36 61  1  0
 36 62  1  0
M  END
$$$$
[H]c1c([H])c(Cl)c(-c2c([H])c3c([H])nc(N([H])c4c([H])c([H])c(N5C([H])([H])C([H])([H])N(C([H])([H])[H])C([H])([H])C5([H])[H])c([H])c4[H])nc3n(C([H])([H])[H])c2=O)c(Cl)c1[H]
     RDKit          3D

 58 62  0  0  0  0  0  0  0  0999 V2000
    8.7224   -0.7038   -1.0744 C   0  0  0  0  0  0  0  0  0  0  0  0
    7.4397   -0.3590   -1.6865 N   0  0  0  0  0  0  0  0  0  0  0  0
    7.0422    0.9098   -1.1085 C   0  0  0  0  0  0  0  0  0  0  0  0
    6.3179    0.6491    0.1968 C   0  0  0  0  0  0  0  0  0  0  0  0
    5.0438    0.0436   -0.1284 N   0  0  0  0  0  0  0  0  0  0  0  0
    5.0923   -0.9153   -1.2399 C   0  0  0  0  0  0  0  0  0  0  0  0
    6.5145   -1.4160   -1.3667 C   0  0  0  0  0  0  0  0  0  0  0  0
    3.8252    0.3062    0.5286 C   0  0  0  0  0  0  0  0  0  0  0  0
    3.7214    1.1243    1.6305 C   0  0  0  0  0  0  0  0  0  0  0  0
    2.5219    1.3736    2.2571 C   0  0  0  0  0  0  0  0  0  0  0  0
    1.3265    0.7971    1.7969 C   0  0  0  0  0  0  0  0  0  0  0  0
    0.1469    1.0923    2.4998 N   0  0  0  0  0  0  0  0  0  0  0  0
   -1.1899    0.8532    2.1110 C   0  0  0  0  0  0  0  0  0  0  0  0
   -2.2165    1.2108    2.9512 N   0  0  0  0  0  0  0  0  0  0  0  0
   -3.5029    1.0306    2.6538 C   0  0  0  0  0  0  0  0  0  0  0  0
   -3.8747    0.4675    1.4698 C   0  0  0  0  0  0  0  0  0  0  0  0
   -5.2097    0.2655    1.1275 C   0  0  0  0  0  0  0  0  0  0  0  0
   -5.5448   -0.3068   -0.0798 C   0  0  0  0  0  0  0  0  0  0  0  0
   -6.9463   -0.5110   -0.4233 C   0  0  0  0  0  0  0  0  0  0  0  0
   -7.5727   -1.6909   -0.0816 C   0  0  0  0  0  0  0  0  0  0  0  0
   -6.7254   -2.9692    0.7637 Cl  0  0  0  0  0  0  0  0  0  0  0  0
   -8.9062   -1.9121   -0.3963 C   0  0  0  0  0  0  0  0  0  0  0  0
   -9.6532   -0.9477   -1.0678 C   0  0  0  0  0  0  0  0  0  0  0  0
   -9.0241    0.2360   -1.4104 C   0  0  0  0  0  0  0  0  0  0  0  0
   -7.7010    0.4264   -1.0849 C   0  0  0  0  0  0  0  0  0  0  0  0
   -6.9498    1.9389   -1.5390 Cl  0  0  0  0  0  0  0  0  0  0  0  0
   -4.5000   -0.6566   -0.9040 C   0  0  0  0  0  0  0  0  0  0  0  0
   -4.7838   -1.1819   -2.0136 O   0  0  0  0  0  0  0  0  0  0  0  0
   -3.2127   -0.4601   -0.5703 N   0  0  0  0  0  0  0  0  0  0  0  0
   -2.1231   -0.8424   -1.4667 C   0  0  0  0  0  0  0  0  0  0  0  0
   -2.8626    0.0985    0.6064 C   0  0  0  0  0  0  0  0  0  0  0  0
   -1.5959    0.3058    0.9635 N   0  0  0  0  0  0  0  0  0  0  0  0
    1.4499   -0.0143    0.6998 C   0  0  0  0  0  0  0  0  0  0  0  0
    2.6757   -0.2660    0.0631 C   0  0  0  0  0  0  0  0  0  0  0  0
    8.4600   -1.1949   -0.0924 H   0  0  0  0  0  0  0  0  0  0  0  0
    9.2266   -1.4433   -1.7258 H   0  0  0  0  0  0  0  0  0  0  0  0
    9.3445    0.2028   -0.8899 H   0  0  0  0  0  0  0  0  0  0  0  0
    7.8706    1.5909   -0.9005 H   0  0  0  0  0  0  0  0  0  0  0  0
    6.3455    1.3995   -1.8075 H   0  0  0  0  0  0  0  0  0  0  0  0
    6.2737    1.5522    0.7954 H   0  0  0  0  0  0  0  0  0  0  0  0
    6.9057   -0.1203    0.7570 H   0  0  0  0  0  0  0  0  0  0  0  0
    4.7414   -0.4993   -2.1814 H   0  0  0  0  0  0  0  0  0  0  0  0
    4.5014   -1.8035   -0.8821 H   0  0  0  0  0  0  0  0  0  0  0  0
    6.5452   -2.1425   -2.2209 H   0  0  0  0  0  0  0  0  0  0  0  0
    6.8537   -1.9325   -0.4561 H   0  0  0  0  0  0  0  0  0  0  0  0
    4.6486    1.5712    1.9890 H   0  0  0  0  0  0  0  0  0  0  0  0
    2.4849    2.0217    3.1179 H   0  0  0  0  0  0  0  0  0  0  0  0
    0.2484    1.5552    3.4589 H   0  0  0  0  0  0  0  0  0  0  0  0
   -4.2586    1.3336    3.3571 H   0  0  0  0  0  0  0  0  0  0  0  0
   -5.9798    0.5697    1.8346 H   0  0  0  0  0  0  0  0  0  0  0  0
   -9.4125   -2.8283   -0.1374 H   0  0  0  0  0  0  0  0  0  0  0  0
  -10.7017   -1.1457   -1.3040 H   0  0  0  0  0  0  0  0  0  0  0  0
   -9.6092    0.9884   -1.9349 H   0  0  0  0  0  0  0  0  0  0  0  0
   -1.4230   -1.4968   -0.8848 H   0  0  0  0  0  0  0  0  0  0  0  0
   -2.4850   -1.4366   -2.3206 H   0  0  0  0  0  0  0  0  0  0  0  0
   -1.5780    0.0677   -1.7368 H   0  0  0  0  0  0  0  0  0  0  0  0
    0.5779   -0.5003    0.2943 H   0  0  0  0  0  0  0  0  0  0  0  0
    2.6748   -0.9267   -0.8068 H   0  0  0  0  0  0  0  0  0  0  0  0
  1  2  1  0
  2  3  1  0
  3  4  1  0
  4  5  1  0
  5  6  1  0
  6  7  1  0
  5  8  1  0
  8  9  2  0
  9 10  1  0
 10 11  2  0
 11 12  1  0
 12 13  1  0
 13 14  2  0
 14 15  1  0
 15 16  2  0
 16 17  1  0
 17 18  2  0
 18 19  1  0
 19 20  2  0
 20 21  1  0
 20 22  1  0
 22 23  2  0
 23 24  1  0
 24 25  2  0
 25 26  1  0
 18 27  1  0
 27 28  2  0
 27 29  1  0
 29 30  1  0
 29 31  1  0
 31 32  2  0
 11 33  1  0
 33 34  2  0
  7  2  1  0
 34  8  1  0
 32 13  1  0
 31 16  1  0
 25 19  1  0
  1 35  1  0
  1 36  1  0
  1 37  1  0
  3 38  1  0
  3 39  1  0
  4 40  1  0
  4 41  1  0
  6 42  1  0
  6 43  1  0
  7 44  1  0
  7 45  1  0
  9 46  1  0
 10 47  1  0
 12 48  1  0
 15 49  1  0
 17 50  1  0
 22 51  1  0
 23 52  1  0
 24 53  1  0
 30 54  1  0
 30 55  1  0
 30 56  1  0
 33 57  1  0
 34 58  1  0
M  END
$$$$
[H]c1c(F)c([H])c2c(C(=O)OC3([H])C([H])([H])C4([H])N(C([H])([H])[H])C([H])(C([H])([H])C4([H])[H])C3([H])[H])c([H])n([H])c2c1[H]
     RDKit          3D

 41 44  0  0  0  0  0  0  0  0999 V2000
   -3.5281    2.4082   -0.8281 C   0  0  0  0  0  0  0  0  0  0  0  0
   -2.6548    1.4070   -0.3492 N   0  0  0  0  0  0  0  0  0  0  0  0
   -2.9211    0.1030   -0.8868 C   0  0  0  0  0  0  0  0  0  0  0  0
   -4.1869   -0.2875   -0.1146 C   0  0  0  0  0  0  0  0  0  0  0  0
   -3.8539    0.2031    1.2704 C   0  0  0  0  0  0  0  0  0  0  0  0
   -2.7102    1.1682    1.0717 C   0  0  0  0  0  0  0  0  0  0  0  0
   -1.3766    0.5371    1.4218 C   0  0  0  0  0  0  0  0  0  0  0  0
   -1.0398   -0.6640    0.6086 C   0  0  0  0  0  0  0  0  0  0  0  0
   -1.8845   -0.9124   -0.5837 C   0  0  0  0  0  0  0  0  0  0  0  0
    0.3561   -0.6284    0.2997 O   0  0  0  0  0  0  0  0  0  0  0  0
    1.2792   -1.5101    0.7788 C   0  0  0  0  0  0  0  0  0  0  0  0
    0.8810   -2.4209    1.5467 O   0  0  0  0  0  0  0  0  0  0  0  0
    2.6997   -1.4687    0.4605 C   0  0  0  0  0  0  0  0  0  0  0  0
    3.6781   -2.3251    0.9093 C   0  0  0  0  0  0  0  0  0  0  0  0
    4.8436   -1.9406    0.3835 N   0  0  0  0  0  0  0  0  0  0  0  0
    4.6429   -0.8528   -0.3971 C   0  0  0  0  0  0  0  0  0  0  0  0
    5.5500   -0.1220   -1.1321 C   0  0  0  0  0  0  0  0  0  0  0  0
    5.1133    0.9611   -1.8615 C   0  0  0  0  0  0  0  0  0  0  0  0
    3.7735    1.2810   -1.8322 C   0  0  0  0  0  0  0  0  0  0  0  0
    3.2727    2.3355   -2.5271 F   0  0  0  0  0  0  0  0  0  0  0  0
    2.8609    0.5307   -1.0814 C   0  0  0  0  0  0  0  0  0  0  0  0
    3.2998   -0.5410   -0.3611 C   0  0  0  0  0  0  0  0  0  0  0  0
   -3.1358    2.7571   -1.8286 H   0  0  0  0  0  0  0  0  0  0  0  0
   -3.4879    3.3138   -0.1833 H   0  0  0  0  0  0  0  0  0  0  0  0
   -4.5532    2.0579   -1.0093 H   0  0  0  0  0  0  0  0  0  0  0  0
   -3.1372    0.1247   -1.9708 H   0  0  0  0  0  0  0  0  0  0  0  0
   -5.0882    0.1452   -0.5446 H   0  0  0  0  0  0  0  0  0  0  0  0
   -4.2048   -1.4109   -0.1022 H   0  0  0  0  0  0  0  0  0  0  0  0
   -3.5531   -0.6496    1.9279 H   0  0  0  0  0  0  0  0  0  0  0  0
   -4.7658    0.6891    1.6745 H   0  0  0  0  0  0  0  0  0  0  0  0
   -2.8128    2.0846    1.6686 H   0  0  0  0  0  0  0  0  0  0  0  0
   -1.4362    0.3152    2.5268 H   0  0  0  0  0  0  0  0  0  0  0  0
   -0.6112    1.3478    1.3494 H   0  0  0  0  0  0  0  0  0  0  0  0
   -1.1450   -1.5530    1.3008 H   0  0  0  0  0  0  0  0  0  0  0  0
   -1.2568   -1.0313   -1.5179 H   0  0  0  0  0  0  0  0  0  0  0  0
   -2.4181   -1.9089   -0.5161 H   0  0  0  0  0  0  0  0  0  0  0  0
    3.5412   -3.1651    1.5712 H   0  0  0  0  0  0  0  0  0  0  0  0
    5.7869   -2.3926    0.5341 H   0  0  0  0  0  0  0  0  0  0  0  0
    6.5999   -0.3560   -1.1677 H   0  0  0  0  0  0  0  0  0  0  0  0
    5.7658    1.5828   -2.4626 H   0  0  0  0  0  0  0  0  0  0  0  0
    1.8173    0.7874   -1.0643 H   0  0  0  0  0  0  0  0  0  0  0  0
  1  2  1  0
  2  3  1  0
  3  4  1  0
  4  5  1  0
  5  6  1  0
  6  7  1  0
  7  8  1  0
  8  9  1  0
  8 10  1  0
 10 11  1  0
 11 12  2  0
 11 13  1  0
 13 14  2  0
 14 15  1  0
 15 16  1  0
 16 17  2  0
 17 18  1  0
 18 19  2  0
 19 20  1  0
 19 21  1  0
 21 22  2  0
  6  2  1  0
 22 13  1  0
  9  3  1  0
 22 16  1  0
  1 23  1  0
  1 24  1  0
  1 25  1  0
  3 26  1  0
  4 27  1  0
  4 28  1  0
  5 29  1  0
  5 30  1  0
  6 31  1  0
  7 32  1  0
  7 33  1  0
  8 34  1  0
  9 35  1  0
  9 36  1  0
 14 37  1  0
 15 38  1  0
 17 39  1  0
 18 40  1  0
 21 41  1  0
M  END
$$$$
[H]OC(=O)C([H])([H])[C@@]([H])(C(=O)N([H])[C@]([H])(C(=O)N([H])[C@]([H])(C(=O)N([H])[H])C([H])([H])C([H])(C([H])([H])[H])C([H])([H])[H])C([H])([H])C(=O)O[H])N([H])C(=O)[C@@]([H])(N([H])C(=O)[C@@]([H])(N([H])C(=O)[C@@]([H])(N([H])C(=O)C([H])([H])[H])C([H])([H])c1c([H])nc([H])n1[H])C([H])([H])c1c([H])c([H])c(O[H])c([H])c1[H])C([H])([H])c1c([H])c([H])c([H])c([H])c1[H]
     RDKit          3D

112114  0  0  0  0  0  0  0  0999 V2000
   12.1330    1.5793    1.2475 C   0  0  0  0  0  0  0  0  0  0  0  0
   11.3641    0.4042    1.7962 C   0  0  0  0  0  0  0  0  0  0  0  0
   11.0173    0.6064    3.2614 C   0  0  0  0  0  0  0  0  0  0  0  0
   10.2587   -0.1141    0.9837 C   0  0  0  0  0  0  0  0  0  0  0  0
    9.0942    0.7046    0.6285 C   0  0  2  0  0  0  0  0  0  0  0  0
    8.2245   -0.1853   -0.1955 N   0  0  0  0  0  0  0  0  0  0  0  0
    6.8540   -0.3954    0.1209 C   0  0  0  0  0  0  0  0  0  0  0  0
    6.4350    0.2085    1.1690 O   0  0  0  0  0  0  0  0  0  0  0  0
    5.9543   -1.2202   -0.6602 C   0  0  2  0  0  0  0  0  0  0  0  0
    5.7528   -0.6393   -2.0789 C   0  0  0  0  0  0  0  0  0  0  0  0
    5.1814    0.6968   -2.0638 C   0  0  0  0  0  0  0  0  0  0  0  0
    4.9364    1.3826   -3.2365 O   0  0  0  0  0  0  0  0  0  0  0  0
    4.8855    1.2891   -0.9869 O   0  0  0  0  0  0  0  0  0  0  0  0
    4.6307   -1.2774   -0.0896 N   0  0  0  0  0  0  0  0  0  0  0  0
    3.5999   -2.1602   -0.4879 C   0  0  0  0  0  0  0  0  0  0  0  0
    3.7961   -2.9705   -1.4180 O   0  0  0  0  0  0  0  0  0  0  0  0
    2.3048   -2.1242    0.1805 C   0  0  2  0  0  0  0  0  0  0  0  0
    2.1570   -3.3092    1.1548 C   0  0  0  0  0  0  0  0  0  0  0  0
    2.2523   -4.5994    0.4867 C   0  0  0  0  0  0  0  0  0  0  0  0
    1.0715   -5.1879    0.0068 O   0  0  0  0  0  0  0  0  0  0  0  0
    3.3166   -5.1949    0.3248 O   0  0  0  0  0  0  0  0  0  0  0  0
    1.1558   -2.1711   -0.7165 N   0  0  0  0  0  0  0  0  0  0  0  0
   -0.0364   -1.5252   -0.2950 C   0  0  0  0  0  0  0  0  0  0  0  0
   -0.0351   -0.9671    0.8508 O   0  0  0  0  0  0  0  0  0  0  0  0
   -1.2788   -1.4420   -1.0617 C   0  0  2  0  0  0  0  0  0  0  0  0
   -1.1165   -0.2524   -2.0526 C   0  0  0  0  0  0  0  0  0  0  0  0
   -0.9004    1.0175   -1.3698 C   0  0  0  0  0  0  0  0  0  0  0  0
    0.3214    1.5241   -1.0027 C   0  0  0  0  0  0  0  0  0  0  0  0
    0.4443    2.7301   -0.3477 C   0  0  0  0  0  0  0  0  0  0  0  0
   -0.6631    3.4996   -0.0234 C   0  0  0  0  0  0  0  0  0  0  0  0
   -1.8841    3.0152   -0.3796 C   0  0  0  0  0  0  0  0  0  0  0  0
   -2.0133    1.7970   -1.0424 C   0  0  0  0  0  0  0  0  0  0  0  0
   -2.4315   -1.2062   -0.2479 N   0  0  0  0  0  0  0  0  0  0  0  0
   -3.7436   -1.3741   -0.6558 C   0  0  0  0  0  0  0  0  0  0  0  0
   -4.1186   -1.7366   -1.8000 O   0  0  0  0  0  0  0  0  0  0  0  0
   -4.8946   -1.1059    0.3314 C   0  0  2  0  0  0  0  0  0  0  0  0
   -5.4033   -2.4157    0.8001 C   0  0  0  0  0  0  0  0  0  0  0  0
   -6.4870   -2.4136    1.7971 C   0  0  0  0  0  0  0  0  0  0  0  0
   -6.1581   -2.4202    3.1631 C   0  0  0  0  0  0  0  0  0  0  0  0
   -7.1325   -2.4515    4.1067 C   0  0  0  0  0  0  0  0  0  0  0  0
   -8.4831   -2.4781    3.8182 C   0  0  0  0  0  0  0  0  0  0  0  0
   -9.4579   -2.5116    4.7862 O   0  0  0  0  0  0  0  0  0  0  0  0
   -8.7940   -2.4716    2.4550 C   0  0  0  0  0  0  0  0  0  0  0  0
   -7.8162   -2.4409    1.4895 C   0  0  0  0  0  0  0  0  0  0  0  0
   -5.8696   -0.2876   -0.4079 N   0  0  0  0  0  0  0  0  0  0  0  0
   -6.0097    1.0735   -0.1658 C   0  0  0  0  0  0  0  0  0  0  0  0
   -5.2218    1.5188    0.7896 O   0  0  0  0  0  0  0  0  0  0  0  0
   -6.8698    2.0435   -0.8106 C   0  0  2  0  0  0  0  0  0  0  0  0
   -7.5446    1.6931   -2.0708 C   0  0  0  0  0  0  0  0  0  0  0  0
   -8.5589    0.6162   -2.0196 C   0  0  0  0  0  0  0  0  0  0  0  0
   -9.1159    0.0374   -3.1564 C   0  0  0  0  0  0  0  0  0  0  0  0
  -10.0307   -0.8281   -2.7477 N   0  0  0  0  0  0  0  0  0  0  0  0
  -10.0836   -0.8264   -1.3844 C   0  0  0  0  0  0  0  0  0  0  0  0
   -9.1773    0.0586   -0.9824 N   0  0  0  0  0  0  0  0  0  0  0  0
   -6.2063    3.3445   -0.9632 N   0  0  0  0  0  0  0  0  0  0  0  0
   -6.4863    4.4848   -0.1948 C   0  0  0  0  0  0  0  0  0  0  0  0
   -5.7444    5.7355   -0.4412 C   0  0  0  0  0  0  0  0  0  0  0  0
   -7.3585    4.4620    0.7027 O   0  0  0  0  0  0  0  0  0  0  0  0
    9.3079    1.9551   -0.0889 C   0  0  0  0  0  0  0  0  0  0  0  0
    9.4413    3.2221    0.5278 N   0  0  0  0  0  0  0  0  0  0  0  0
    9.3785    1.9278   -1.3459 O   0  0  0  0  0  0  0  0  0  0  0  0
   12.0040    2.5047    1.8695 H   0  0  0  0  0  0  0  0  0  0  0  0
   13.2594    1.3980    1.3469 H   0  0  0  0  0  0  0  0  0  0  0  0
   12.0054    1.7361    0.1687 H   0  0  0  0  0  0  0  0  0  0  0  0
   12.1319   -0.4399    1.8232 H   0  0  0  0  0  0  0  0  0  0  0  0
   10.3576   -0.2029    3.6226 H   0  0  0  0  0  0  0  0  0  0  0  0
   10.5573    1.6259    3.4061 H   0  0  0  0  0  0  0  0  0  0  0  0
   11.9106    0.6234    3.9193 H   0  0  0  0  0  0  0  0  0  0  0  0
   10.7404   -0.5109    0.0229 H   0  0  0  0  0  0  0  0  0  0  0  0
    9.9216   -1.0837    1.4669 H   0  0  0  0  0  0  0  0  0  0  0  0
    8.4743    0.9040    1.5413 H   0  0  0  0  0  0  0  0  0  0  0  0
    8.5891   -0.6812   -1.0365 H   0  0  0  0  0  0  0  0  0  0  0  0
    6.3165   -2.2391   -0.8117 H   0  0  0  0  0  0  0  0  0  0  0  0
    6.7438   -0.6666   -2.5931 H   0  0  0  0  0  0  0  0  0  0  0  0
    5.1063   -1.3176   -2.6629 H   0  0  0  0  0  0  0  0  0  0  0  0
    5.4676    1.2190   -4.0922 H   0  0  0  0  0  0  0  0  0  0  0  0
    4.4201   -0.6034    0.6924 H   0  0  0  0  0  0  0  0  0  0  0  0
    2.1882   -1.2431    0.8232 H   0  0  0  0  0  0  0  0  0  0  0  0
    2.9146   -3.1658    1.9619 H   0  0  0  0  0  0  0  0  0  0  0  0
    1.1673   -3.1841    1.6269 H   0  0  0  0  0  0  0  0  0  0  0  0
    1.0432   -5.7745   -0.8193 H   0  0  0  0  0  0  0  0  0  0  0  0
    1.2161   -2.6661   -1.6359 H   0  0  0  0  0  0  0  0  0  0  0  0
   -1.4327   -2.2911   -1.7167 H   0  0  0  0  0  0  0  0  0  0  0  0
   -1.9855   -0.2117   -2.7064 H   0  0  0  0  0  0  0  0  0  0  0  0
   -0.2247   -0.4861   -2.6778 H   0  0  0  0  0  0  0  0  0  0  0  0
    1.2235    0.9826   -1.2284 H   0  0  0  0  0  0  0  0  0  0  0  0
    1.4135    3.1125   -0.0738 H   0  0  0  0  0  0  0  0  0  0  0  0
   -0.5977    4.4515    0.4874 H   0  0  0  0  0  0  0  0  0  0  0  0
   -2.7607    3.6070   -0.1259 H   0  0  0  0  0  0  0  0  0  0  0  0
   -3.0049    1.4974   -1.2993 H   0  0  0  0  0  0  0  0  0  0  0  0
   -2.2431   -0.8808    0.7359 H   0  0  0  0  0  0  0  0  0  0  0  0
   -4.5062   -0.5020    1.1478 H   0  0  0  0  0  0  0  0  0  0  0  0
   -5.7642   -3.0503   -0.0524 H   0  0  0  0  0  0  0  0  0  0  0  0
   -4.5166   -2.9557    1.2617 H   0  0  0  0  0  0  0  0  0  0  0  0
   -5.1041   -2.4020    3.4346 H   0  0  0  0  0  0  0  0  0  0  0  0
   -6.8854   -2.4641    5.1722 H   0  0  0  0  0  0  0  0  0  0  0  0
   -9.8340   -3.3634    5.1675 H   0  0  0  0  0  0  0  0  0  0  0  0
   -9.8445   -2.4929    2.2157 H   0  0  0  0  0  0  0  0  0  0  0  0
   -8.1157   -2.4400    0.4437 H   0  0  0  0  0  0  0  0  0  0  0  0
   -6.4110   -0.8061   -1.1101 H   0  0  0  0  0  0  0  0  0  0  0  0
   -7.6787    2.2980   -0.0085 H   0  0  0  0  0  0  0  0  0  0  0  0
   -6.7289    1.4093   -2.8130 H   0  0  0  0  0  0  0  0  0  0  0  0
   -7.9940    2.6370   -2.4933 H   0  0  0  0  0  0  0  0  0  0  0  0
   -8.8305    0.2698   -4.1903 H   0  0  0  0  0  0  0  0  0  0  0  0
  -10.7471   -1.4406   -0.7872 H   0  0  0  0  0  0  0  0  0  0  0  0
   -8.9601    0.3073    0.0055 H   0  0  0  0  0  0  0  0  0  0  0  0
   -5.4824    3.3745   -1.7181 H   0  0  0  0  0  0  0  0  0  0  0  0
   -5.8377    6.3780    0.4685 H   0  0  0  0  0  0  0  0  0  0  0  0
   -6.1668    6.2861   -1.3095 H   0  0  0  0  0  0  0  0  0  0  0  0
   -4.6484    5.5402   -0.5510 H   0  0  0  0  0  0  0  0  0  0  0  0
    9.4178    4.1245   -0.0130 H   0  0  0  0  0  0  0  0  0  0  0  0
    9.5715    3.3551    1.5759 H   0  0  0  0  0  0  0  0  0  0  0  0
  1  2  1  0
  2  3  1  0
  2  4  1  0
  4  5  1  0
  5  6  1  0
  6  7  1  0
  7  8  2  0
  7  9  1  0
  9 10  1  0
 10 11  1  0
 11 12  1  0
 11 13  2  0
  9 14  1  0
 14 15  1  0
 15 16  2  0
 15 17  1  0
 17 18  1  0
 18 19  1  0
 19 20  1  0
 19 21  2  0
 17 22  1  0
 22 23  1  0
 23 24  2  0
 23 25  1  0
 25 26  1  0
 26 27  1  0
 27 28  2  0
 28 29  1  0
 29 30  2  0
 30 31  1  0
 31 32  2  0
 25 33  1  0
 33 34  1  0
 34 35  2  0
 34 36  1  0
 36 37  1  0
 37 38  1  0
 38 39  2  0
 39 40  1  0
 40 41  2  0
 41 42  1  0
 41 43  1  0
 43 44  2  0
 36 45  1  0
 45 46  1  0
 46 47  2  0
 46 48  1  0
 48 49  1  0
 49 50  1  0
 50 51  2  0
 51 52  1  0
 52 53  2  0
 53 54  1  0
 48 55  1  0
 55 56  1  0
 56 57  1  0
 56 58  2  0
  5 59  1  0
 59 60  1  0
 59 61  2  0
 32 27  1  0
 44 38  1  0
 54 50  1  0
  1 62  1  0
  1 63  1  0
  1 64  1  0
  2 65  1  0
  3 66  1  0
  3 67  1  0
  3 68  1  0
  4 69  1  0
  4 70  1  0
  5 71  1  1
  6 72  1  0
  9 73  1  6
 10 74  1  0
 10 75  1  0
 12 76  1  0
 14 77  1  0
 17 78  1  1
 18 79  1  0
 18 80  1  0
 20 81  1  0
 22 82  1  0
 25 83  1  6
 26 84  1  0
 26 85  1  0
 28 86  1  0
 29 87  1  0
 30 88  1  0
 31 89  1  0
 32 90  1  0
 33 91  1  0
 36 92  1  1
 37 93  1  0
 37 94  1  0
 39 95  1  0
 40 96  1  0
 42 97  1  0
 43 98  1  0
 44 99  1  0
 45100  1  0
 48101  1  1
 49102  1  0
 49103  1  0
 51104  1  0
 53105  1  0
 54106  1  0
 55107  1  0
 57108  1  0
 57109  1  0
 57110  1  0
 60111  1  0
 60112  1  0
M  END
$$$$
[H]O[C@]1(C([H])([H])C([H])([H])[H])C([H])([H])C([H])([H])[C@]2([H])[C@]1(C([H])([H])[H])C([H])([H])C([H])([H])[C@]1([H])[C@@]3(C([H])([H])[H])C([H])=C([H])C(=O)C([H])=C3C([H])([H])C([H])([H])[C@]12[H]
     RDKit          3D

 53 56  0  0  0  0  0  0  0  0999 V2000
    5.1785   -1.2484   -0.0801 C   0  0  0  0  0  0  0  0  0  0  0  0
    4.0249   -0.4693   -0.6618 C   0  0  0  0  0  0  0  0  0  0  0  0
    2.8265   -0.6988    0.2089 C   0  0  1  0  0  0  0  0  0  0  0  0
    2.5438   -2.0640    0.2195 O   0  0  0  0  0  0  0  0  0  0  0  0
    2.9704   -0.1241    1.5920 C   0  0  0  0  0  0  0  0  0  0  0  0
    1.5899    0.4114    1.9986 C   0  0  0  0  0  0  0  0  0  0  0  0
    0.7176   -0.1326    0.9397 C   0  0  1  0  0  0  0  0  0  0  0  0
   -0.6045    0.5542    0.7464 C   0  0  2  0  0  0  0  0  0  0  0  0
   -1.3919    0.4753    2.0038 C   0  0  0  0  0  0  0  0  0  0  0  0
   -2.7251    1.2130    1.7837 C   0  0  0  0  0  0  0  0  0  0  0  0
   -3.3773    0.3880    0.6961 C   0  0  0  0  0  0  0  0  0  0  0  0
   -4.5378   -0.1506    0.9399 C   0  0  0  0  0  0  0  0  0  0  0  0
   -5.2528   -0.9740   -0.0352 C   0  0  0  0  0  0  0  0  0  0  0  0
   -6.3621   -1.4950    0.1777 O   0  0  0  0  0  0  0  0  0  0  0  0
   -4.6069   -1.1796   -1.3205 C   0  0  0  0  0  0  0  0  0  0  0  0
   -3.4290   -0.6062   -1.5168 C   0  0  0  0  0  0  0  0  0  0  0  0
   -2.6931    0.2269   -0.5813 C   0  0  1  0  0  0  0  0  0  0  0  0
   -2.5863    1.6150   -1.2677 C   0  0  0  0  0  0  0  0  0  0  0  0
   -1.2726   -0.2212   -0.4059 C   0  0  1  0  0  0  0  0  0  0  0  0
   -0.4277   -0.0271   -1.6203 C   0  0  0  0  0  0  0  0  0  0  0  0
    0.9236   -0.6905   -1.4499 C   0  0  0  0  0  0  0  0  0  0  0  0
    1.5864    0.0058   -0.2935 C   0  0  2  0  0  0  0  0  0  0  0  0
    1.9648    1.4274   -0.5886 C   0  0  0  0  0  0  0  0  0  0  0  0
    5.2580   -2.2613   -0.5722 H   0  0  0  0  0  0  0  0  0  0  0  0
    5.1087   -1.3699    1.0203 H   0  0  0  0  0  0  0  0  0  0  0  0
    6.1188   -0.7237   -0.3741 H   0  0  0  0  0  0  0  0  0  0  0  0
    4.2581    0.6060   -0.7760 H   0  0  0  0  0  0  0  0  0  0  0  0
    3.8038   -0.8787   -1.6581 H   0  0  0  0  0  0  0  0  0  0  0  0
    3.2520   -2.6178   -0.1440 H   0  0  0  0  0  0  0  0  0  0  0  0
    3.2630   -0.9791    2.2593 H   0  0  0  0  0  0  0  0  0  0  0  0
    3.7525    0.6288    1.6916 H   0  0  0  0  0  0  0  0  0  0  0  0
    1.6315    1.5090    1.9531 H   0  0  0  0  0  0  0  0  0  0  0  0
    1.3677    0.0131    2.9954 H   0  0  0  0  0  0  0  0  0  0  0  0
    0.5151   -1.2143    1.0621 H   0  0  0  0  0  0  0  0  0  0  0  0
   -0.5162    1.6018    0.4483 H   0  0  0  0  0  0  0  0  0  0  0  0
   -1.6582   -0.6002    2.2230 H   0  0  0  0  0  0  0  0  0  0  0  0
   -0.8303    0.8956    2.8491 H   0  0  0  0  0  0  0  0  0  0  0  0
   -3.3062    1.2271    2.6998 H   0  0  0  0  0  0  0  0  0  0  0  0
   -2.4698    2.1882    1.3404 H   0  0  0  0  0  0  0  0  0  0  0  0
   -5.0467   -0.0048    1.9210 H   0  0  0  0  0  0  0  0  0  0  0  0
   -5.0835   -1.7930   -2.1048 H   0  0  0  0  0  0  0  0  0  0  0  0
   -3.0158   -0.8288   -2.5294 H   0  0  0  0  0  0  0  0  0  0  0  0
   -2.1491    1.5070   -2.2781 H   0  0  0  0  0  0  0  0  0  0  0  0
   -3.6306    2.0090   -1.4318 H   0  0  0  0  0  0  0  0  0  0  0  0
   -2.0548    2.3406   -0.6304 H   0  0  0  0  0  0  0  0  0  0  0  0
   -1.2237   -1.2829   -0.1082 H   0  0  0  0  0  0  0  0  0  0  0  0
   -0.2171    1.0716   -1.7031 H   0  0  0  0  0  0  0  0  0  0  0  0
   -0.8666   -0.4332   -2.5444 H   0  0  0  0  0  0  0  0  0  0  0  0
    0.8703   -1.7614   -1.2662 H   0  0  0  0  0  0  0  0  0  0  0  0
    1.5092   -0.4271   -2.3738 H   0  0  0  0  0  0  0  0  0  0  0  0
    1.1396    2.1347   -0.6127 H   0  0  0  0  0  0  0  0  0  0  0  0
    2.4173    1.4263   -1.6166 H   0  0  0  0  0  0  0  0  0  0  0  0
    2.7434    1.7819    0.1018 H   0  0  0  0  0  0  0  0  0  0  0  0
  1  2  1  0
  2  3  1  0
  3  4  1  1
  3  5  1  0
  5  6  1  0
  6  7  1  0
  7  8  1  0
  8  9  1  0
  9 10  1  0
 10 11  1  0
 11 12  2  0
 12 13  1  0
 13 14  2  0
 13 15  1  0
 15 16  2  0
 16 17  1  0
 17 18  1  6
 17 19  1  0
 19 20  1  0
 20 21  1  0
 21 22  1  0
 22 23  1  6
 22  3  1  0
 22  7  1  0
 19  8  1  0
 17 11  1  0
  1 24  1  0
  1 25  1  0
  1 26  1  0
  2 27  1  0
  2 28  1  0
  4 29  1  0
  5 30  1  0
  5 31  1  0
  6 32  1  0
  6 33  1  0
  7 34  1  1
  8 35  1  6
  9 36  1  0
  9 37  1  0
 10 38  1  0
 10 39  1  0
 12 40  1  0
 15 41  1  0
 16 42  1  0
 18 43  1  0
 18 44  1  0
 18 45  1  0
 19 46  1  1
 20 47  1  0
 20 48  1  0
 21 49  1  0
 21 50  1  0
 23 51  1  0
 23 52  1  0
 23 53  1  0
M  END
$$$$
[H]c1nc2c([H])c([H])c([H])c([H])n2c1C(=O)N([H])c1c([H])c(N([H])C(=O)c2c([H])c([H])c(C([H])([H])N3C([H])([H])C([H])([H])N(C([H])([H])[H])C([H])([H])C3([H])[H])c(C(F)(F)F)c2[H])c([H])c([H])c1C([H])([H])[H]
     RDKit          3D

 69 73  0  0  0  0  0  0  0  0999 V2000
    9.2006   -1.9543   -0.5875 C   0  0  0  0  0  0  0  0  0  0  0  0
    8.0158   -1.1863   -0.7540 N   0  0  0  0  0  0  0  0  0  0  0  0
    7.7395   -0.7236   -2.0714 C   0  0  0  0  0  0  0  0  0  0  0  0
    6.5166   -1.2473   -2.7038 C   0  0  0  0  0  0  0  0  0  0  0  0
    5.3621   -1.1552   -1.7871 N   0  0  0  0  0  0  0  0  0  0  0  0
    5.2334    0.1929   -1.3308 C   0  0  0  0  0  0  0  0  0  0  0  0
    4.0104    0.5161   -0.5900 C   0  0  0  0  0  0  0  0  0  0  0  0
    2.9804   -0.3874   -0.4274 C   0  0  0  0  0  0  0  0  0  0  0  0
    1.7874   -0.0795    0.2392 C   0  0  0  0  0  0  0  0  0  0  0  0
    1.6105    1.1733    0.7634 C   0  0  0  0  0  0  0  0  0  0  0  0
    2.6199    2.0725    0.6079 C   0  0  0  0  0  0  0  0  0  0  0  0
    3.8206    1.7797   -0.0565 C   0  0  0  0  0  0  0  0  0  0  0  0
    4.8604    2.8008   -0.1724 C   0  0  0  0  0  0  0  0  0  0  0  0
    6.0548    2.5047    0.4386 F   0  0  0  0  0  0  0  0  0  0  0  0
    5.0499    3.2263   -1.4820 F   0  0  0  0  0  0  0  0  0  0  0  0
    4.4097    3.9543    0.4921 F   0  0  0  0  0  0  0  0  0  0  0  0
    0.3819    1.5665    1.4683 C   0  0  0  0  0  0  0  0  0  0  0  0
    0.4800    2.5562    2.2173 O   0  0  0  0  0  0  0  0  0  0  0  0
   -0.8278    0.8799    1.3152 N   0  0  0  0  0  0  0  0  0  0  0  0
   -2.0396    1.1963    1.9673 C   0  0  0  0  0  0  0  0  0  0  0  0
   -2.1674    1.8989    3.1259 C   0  0  0  0  0  0  0  0  0  0  0  0
   -3.4095    2.1714    3.6516 C   0  0  0  0  0  0  0  0  0  0  0  0
   -4.5561    1.7435    3.0251 C   0  0  0  0  0  0  0  0  0  0  0  0
   -5.8906    2.0373    3.5924 C   0  0  0  0  0  0  0  0  0  0  0  0
   -4.4721    1.0211    1.8379 C   0  0  0  0  0  0  0  0  0  0  0  0
   -5.6614    0.6137    1.2365 N   0  0  0  0  0  0  0  0  0  0  0  0
   -5.8771   -0.1050    0.0521 C   0  0  0  0  0  0  0  0  0  0  0  0
   -4.9330   -0.4950   -0.6557 O   0  0  0  0  0  0  0  0  0  0  0  0
   -7.2479   -0.4270   -0.4020 C   0  0  0  0  0  0  0  0  0  0  0  0
   -8.3909   -0.0743    0.2844 C   0  0  0  0  0  0  0  0  0  0  0  0
   -9.4366   -0.5205   -0.4167 N   0  0  0  0  0  0  0  0  0  0  0  0
   -8.9875   -1.1392   -1.5160 C   0  0  0  0  0  0  0  0  0  0  0  0
   -9.6643   -1.7682   -2.5585 C   0  0  0  0  0  0  0  0  0  0  0  0
   -8.9585   -2.3378   -3.5910 C   0  0  0  0  0  0  0  0  0  0  0  0
   -7.5809   -2.2571   -3.5434 C   0  0  0  0  0  0  0  0  0  0  0  0
   -6.9299   -1.6302   -2.5028 C   0  0  0  0  0  0  0  0  0  0  0  0
   -7.6275   -1.0770   -1.4993 N   0  0  0  0  0  0  0  0  0  0  0  0
   -3.2164    0.7623    1.3333 C   0  0  0  0  0  0  0  0  0  0  0  0
    5.7347   -2.1102   -0.7391 C   0  0  0  0  0  0  0  0  0  0  0  0
    6.8854   -1.5593    0.0174 C   0  0  0  0  0  0  0  0  0  0  0  0
   10.0206   -1.4285   -1.1234 H   0  0  0  0  0  0  0  0  0  0  0  0
    9.0691   -2.9481   -1.0517 H   0  0  0  0  0  0  0  0  0  0  0  0
    9.5188   -2.0052    0.4733 H   0  0  0  0  0  0  0  0  0  0  0  0
    7.7641    0.3825   -2.1336 H   0  0  0  0  0  0  0  0  0  0  0  0
    8.6117   -1.0522   -2.7133 H   0  0  0  0  0  0  0  0  0  0  0  0
    6.3260   -0.7506   -3.6584 H   0  0  0  0  0  0  0  0  0  0  0  0
    6.6574   -2.3567   -2.8628 H   0  0  0  0  0  0  0  0  0  0  0  0
    5.1756    0.8049   -2.2950 H   0  0  0  0  0  0  0  0  0  0  0  0
    6.1696    0.5147   -0.8856 H   0  0  0  0  0  0  0  0  0  0  0  0
    3.0529   -1.3949   -0.8434 H   0  0  0  0  0  0  0  0  0  0  0  0
    1.0172   -0.8252    0.3373 H   0  0  0  0  0  0  0  0  0  0  0  0
    2.5017    3.0758    1.0168 H   0  0  0  0  0  0  0  0  0  0  0  0
   -0.7888    0.0480    0.6401 H   0  0  0  0  0  0  0  0  0  0  0  0
   -1.3030    2.2390    3.6518 H   0  0  0  0  0  0  0  0  0  0  0  0
   -3.5341    2.7357    4.5836 H   0  0  0  0  0  0  0  0  0  0  0  0
   -5.7626    2.6164    4.5254 H   0  0  0  0  0  0  0  0  0  0  0  0
   -6.5214    2.6552    2.9158 H   0  0  0  0  0  0  0  0  0  0  0  0
   -6.4194    1.0978    3.8693 H   0  0  0  0  0  0  0  0  0  0  0  0
   -6.5753    0.8820    1.7433 H   0  0  0  0  0  0  0  0  0  0  0  0
   -8.4809    0.4705    1.2311 H   0  0  0  0  0  0  0  0  0  0  0  0
  -10.7481   -1.7927   -2.5291 H   0  0  0  0  0  0  0  0  0  0  0  0
   -9.4633   -2.8240   -4.3979 H   0  0  0  0  0  0  0  0  0  0  0  0
   -6.9726   -2.6969   -4.3462 H   0  0  0  0  0  0  0  0  0  0  0  0
   -5.8520   -1.6072   -2.5357 H   0  0  0  0  0  0  0  0  0  0  0  0
   -3.0860    0.2121    0.4254 H   0  0  0  0  0  0  0  0  0  0  0  0
    6.0406   -3.0338   -1.3114 H   0  0  0  0  0  0  0  0  0  0  0  0
    4.9363   -2.3739   -0.0588 H   0  0  0  0  0  0  0  0  0  0  0  0
    7.2224   -2.3531    0.7451 H   0  0  0  0  0  0  0  0  0  0  0  0
    6.5442   -0.7251    0.6578 H   0  0  0  0  0  0  0  0  0  0  0  0
  1  2  1  0
  2  3  1  0
  3  4  1  0
  4  5  1  0
  5  6  1  0
  6  7  1  0
  7  8  2  0
  8  9  1  0
  9 10  2  0
 10 11  1  0
 11 12  2  0
 12 13  1  0
 13 14  1  0
 13 15  1  0
 13 16  1  0
 10 17  1  0
 17 18  2  0
 17 19  1  0
 19 20  1  0
 20 21  2  0
 21 22  1  0
 22 23  2  0
 23 24  1  0
 23 25  1  0
 25 26  1  0
 26 27  1  0
 27 28  2  0
 27 29  1  0
 29 30  2  0
 30 31  1  0
 31 32  2  0
 32 33  1  0
 33 34  2  0
 34 35  1  0
 35 36  2  0
 36 37  1  0
 25 38  2  0
  5 39  1  0
 39 40  1  0
 40  2  1  0
 12  7  1  0
 38 20  1  0
 37 29  1  0
 37 32  1  0
  1 41  1  0
  1 42  1  0
  1 43  1  0
  3 44  1  0
  3 45  1  0
  4 46  1  0
  4 47  1  0
  6 48  1  0
  6 49  1  0
  8 50  1  0
  9 51  1  0
 11 52  1  0
 19 53  1  0
 21 54  1  0
 22 55  1  0
 24 56  1  0
 24 57  1  0
 24 58  1  0
 26 59  1  0
 30 60  1  0
 33 61  1  0
 34 62  1  0
 35 63  1  0
 36 64  1  0
 38 65  1  0
 39 66  1  0
 39 67  1  0
 40 68  1  0
 40 69  1  0
M  END
$$$$
[H]c1c([H])c([H])c2c(c1[H])C([H])([H])N(C1([H])C([H])([H])C([H])([H])N(C(=O)c3c([H])c(OC([H])([H])[H])c(OC([H])([H])[H])c(OC([H])([H])[H])c3[H])C([H])([H])C1([H])[H])C([H])([H])C2([H])[H]
     RDKit          3D

 60 63  0  0  0  0  0  0  0  0999 V2000
    6.3532   -1.8817   -2.8182 C   0  0  0  0  0  0  0  0  0  0  0  0
    6.2875   -1.7927   -1.4086 O   0  0  0  0  0  0  0  0  0  0  0  0
    5.1334   -1.2929   -0.8402 C   0  0  0  0  0  0  0  0  0  0  0  0
    4.0631   -0.8858   -1.5778 C   0  0  0  0  0  0  0  0  0  0  0  0
    2.8731   -0.3716   -1.0263 C   0  0  0  0  0  0  0  0  0  0  0  0
    2.8675   -0.3094    0.3388 C   0  0  0  0  0  0  0  0  0  0  0  0
    3.9274   -0.7082    1.1576 C   0  0  0  0  0  0  0  0  0  0  0  0
    3.8731   -0.6252    2.5404 O   0  0  0  0  0  0  0  0  0  0  0  0
    2.6831   -0.1154    3.1128 C   0  0  0  0  0  0  0  0  0  0  0  0
    5.0544   -1.1992    0.5291 C   0  0  0  0  0  0  0  0  0  0  0  0
    6.1292   -1.6049    1.3162 O   0  0  0  0  0  0  0  0  0  0  0  0
    7.1618   -0.7233    1.6984 C   0  0  0  0  0  0  0  0  0  0  0  0
    1.7742    0.0209   -1.8737 C   0  0  0  0  0  0  0  0  0  0  0  0
    1.9845   -0.2647   -3.1345 O   0  0  0  0  0  0  0  0  0  0  0  0
    0.5658    0.6366   -1.5693 N   0  0  0  0  0  0  0  0  0  0  0  0
    0.0322    1.0981   -0.3375 C   0  0  0  0  0  0  0  0  0  0  0  0
   -1.1795    2.0215   -0.5339 C   0  0  0  0  0  0  0  0  0  0  0  0
   -2.2495    1.4219   -1.3764 C   0  0  0  0  0  0  0  0  0  0  0  0
   -1.6967    0.2784   -2.2304 C   0  0  0  0  0  0  0  0  0  0  0  0
   -0.3488    0.8481   -2.7307 C   0  0  0  0  0  0  0  0  0  0  0  0
   -3.3640    0.9992   -0.6087 N   0  0  0  0  0  0  0  0  0  0  0  0
   -3.9789    2.1171    0.0457 C   0  0  0  0  0  0  0  0  0  0  0  0
   -5.4485    1.8320    0.2994 C   0  0  0  0  0  0  0  0  0  0  0  0
   -5.5780    0.4246    0.7894 C   0  0  0  0  0  0  0  0  0  0  0  0
   -6.8127    0.0559    1.2997 C   0  0  0  0  0  0  0  0  0  0  0  0
   -6.9975   -1.2312    1.7705 C   0  0  0  0  0  0  0  0  0  0  0  0
   -6.0019   -2.1620    1.7521 C   0  0  0  0  0  0  0  0  0  0  0  0
   -4.7721   -1.7650    1.2341 C   0  0  0  0  0  0  0  0  0  0  0  0
   -4.5704   -0.4888    0.7616 C   0  0  0  0  0  0  0  0  0  0  0  0
   -3.2295   -0.1336    0.2214 C   0  0  0  0  0  0  0  0  0  0  0  0
    7.3329   -2.2184   -3.1821 H   0  0  0  0  0  0  0  0  0  0  0  0
    6.1580   -0.8561   -3.2477 H   0  0  0  0  0  0  0  0  0  0  0  0
    5.5199   -2.5094   -3.2253 H   0  0  0  0  0  0  0  0  0  0  0  0
    4.1116   -0.9528   -2.6495 H   0  0  0  0  0  0  0  0  0  0  0  0
    2.0192    0.0493    0.8806 H   0  0  0  0  0  0  0  0  0  0  0  0
    2.4200    0.8797    2.7226 H   0  0  0  0  0  0  0  0  0  0  0  0
    1.8678   -0.8006    2.7359 H   0  0  0  0  0  0  0  0  0  0  0  0
    2.7406   -0.1194    4.2225 H   0  0  0  0  0  0  0  0  0  0  0  0
    6.9185   -0.2597    2.6988 H   0  0  0  0  0  0  0  0  0  0  0  0
    7.2858    0.1262    0.9936 H   0  0  0  0  0  0  0  0  0  0  0  0
    8.1252   -1.2521    1.8333 H   0  0  0  0  0  0  0  0  0  0  0  0
   -0.2685    0.3427    0.3824 H   0  0  0  0  0  0  0  0  0  0  0  0
    0.8073    1.8179    0.0820 H   0  0  0  0  0  0  0  0  0  0  0  0
   -0.7606    2.9114   -1.0918 H   0  0  0  0  0  0  0  0  0  0  0  0
   -1.5564    2.3437    0.4440 H   0  0  0  0  0  0  0  0  0  0  0  0
   -2.5714    2.1862   -2.1599 H   0  0  0  0  0  0  0  0  0  0  0  0
   -2.3205    0.1617   -3.1108 H   0  0  0  0  0  0  0  0  0  0  0  0
   -1.4579   -0.6136   -1.6547 H   0  0  0  0  0  0  0  0  0  0  0  0
   -0.0459    0.2623   -3.5947 H   0  0  0  0  0  0  0  0  0  0  0  0
   -0.4554    1.9299   -2.9339 H   0  0  0  0  0  0  0  0  0  0  0  0
   -3.4745    2.2351    1.0498 H   0  0  0  0  0  0  0  0  0  0  0  0
   -3.8852    3.0518   -0.5264 H   0  0  0  0  0  0  0  0  0  0  0  0
   -6.0615    1.9470   -0.5910 H   0  0  0  0  0  0  0  0  0  0  0  0
   -5.8030    2.4866    1.1223 H   0  0  0  0  0  0  0  0  0  0  0  0
   -7.6277    0.7694    1.3312 H   0  0  0  0  0  0  0  0  0  0  0  0
   -7.9790   -1.5035    2.1711 H   0  0  0  0  0  0  0  0  0  0  0  0
   -6.1546   -3.1504    2.1156 H   0  0  0  0  0  0  0  0  0  0  0  0
   -3.9862   -2.5086    1.2227 H   0  0  0  0  0  0  0  0  0  0  0  0
   -2.5286    0.0629    1.0622 H   0  0  0  0  0  0  0  0  0  0  0  0
   -2.9053   -1.0179   -0.3642 H   0  0  0  0  0  0  0  0  0  0  0  0
  1  2  1  0
  2  3  1  0
  3  4  2  0
  4  5  1  0
  5  6  2  0
  6  7  1  0
  7  8  1  0
  8  9  1  0
  7 10  2  0
 10 11  1  0
 11 12  1  0
  5 13  1  0
 13 14  2  0
 13 15  1  0
 15 16  1  0
 16 17  1  0
 17 18  1  0
 18 19  1  0
 19 20  1  0
 18 21  1  0
 21 22  1  0
 22 23  1  0
 23 24  1  0
 24 25  2  0
 25 26  1  0
 26 27  2  0
 27 28  1  0
 28 29  2  0
 29 30  1  0
 10  3  1  0
 20 15  1  0
 30 21  1  0
 29 24  1  0
  1 31  1  0
  1 32  1  0
  1 33  1  0
  4 34  1  0
  6 35  1  0
  9 36  1  0
  9 37  1  0
  9 38  1  0
 12 39  1  0
 12 40  1  0
 12 41  1  0
 16 42  1  0
 16 43  1  0
 17 44  1  0
 17 45  1  0
 18 46  1  0
 19 47  1  0
 19 48  1  0
 20 49  1  0
 20 50  1  0
 22 51  1  0
 22 52  1  0
 23 53  1  0
 23 54  1  0
 25 55  1  0
 26 56  1  0
 27 57  1  0
 28 58  1  0
 30 59  1  0
 30 60  1  0
M  END
$$$$
[H]c1nc2c(N3C([H])([H])C([H])([H])OC([H])([H])C3([H])[H])c([H])c(-c3c([H])c(N([H])C(=O)c4c([H])c([H])c([H])c(C(F)(F)F)c4[H])c([H])c([H])c3C([H])([H])[H])c([H])n2c1[H]
     RDKit          3D

 58 62  0  0  0  0  0  0  0  0999 V2000
   -1.4110   -1.2116    2.4627 C   0  0  0  0  0  0  0  0  0  0  0  0
   -0.2209   -1.1545    1.5633 C   0  0  0  0  0  0  0  0  0  0  0  0
    0.9432   -1.7642    2.0348 C   0  0  0  0  0  0  0  0  0  0  0  0
    2.1123   -1.6728    1.3462 C   0  0  0  0  0  0  0  0  0  0  0  0
    2.1147   -0.9555    0.1671 C   0  0  0  0  0  0  0  0  0  0  0  0
    3.3556   -0.6824   -0.4514 N   0  0  0  0  0  0  0  0  0  0  0  0
    4.5390   -1.4678   -0.3582 C   0  0  0  0  0  0  0  0  0  0  0  0
    4.5644   -2.5809    0.2558 O   0  0  0  0  0  0  0  0  0  0  0  0
    5.7694   -0.9603   -0.9628 C   0  0  0  0  0  0  0  0  0  0  0  0
    6.1386   -1.0249   -2.2503 C   0  0  0  0  0  0  0  0  0  0  0  0
    7.3287   -0.4510   -2.6967 C   0  0  0  0  0  0  0  0  0  0  0  0
    8.1359    0.1907   -1.7860 C   0  0  0  0  0  0  0  0  0  0  0  0
    7.7828    0.2683   -0.4675 C   0  0  0  0  0  0  0  0  0  0  0  0
    6.5965   -0.3066   -0.0475 C   0  0  0  0  0  0  0  0  0  0  0  0
    8.6329    0.9595    0.5434 C   0  0  0  0  0  0  0  0  0  0  0  0
    8.7566    0.1790    1.6544 F   0  0  0  0  0  0  0  0  0  0  0  0
    9.8419    1.2829   -0.0104 F   0  0  0  0  0  0  0  0  0  0  0  0
    7.9889    2.1372    0.9342 F   0  0  0  0  0  0  0  0  0  0  0  0
    0.9481   -0.3471   -0.3209 C   0  0  0  0  0  0  0  0  0  0  0  0
   -0.2449   -0.4465    0.3907 C   0  0  0  0  0  0  0  0  0  0  0  0
   -1.4794    0.2291   -0.0637 C   0  0  0  0  0  0  0  0  0  0  0  0
   -2.7054   -0.3647    0.0020 C   0  0  0  0  0  0  0  0  0  0  0  0
   -3.8694    0.3476   -0.3413 C   0  0  0  0  0  0  0  0  0  0  0  0
   -5.0907   -0.3191   -0.1805 N   0  0  0  0  0  0  0  0  0  0  0  0
   -5.1042   -1.6688    0.4207 C   0  0  0  0  0  0  0  0  0  0  0  0
   -6.5344   -2.0191    0.7148 C   0  0  0  0  0  0  0  0  0  0  0  0
   -7.2406   -1.0444    1.3688 O   0  0  0  0  0  0  0  0  0  0  0  0
   -7.1480    0.2175    0.8395 C   0  0  0  0  0  0  0  0  0  0  0  0
   -6.4182    0.1354   -0.5199 C   0  0  0  0  0  0  0  0  0  0  0  0
   -3.7802    1.6514   -0.7575 C   0  0  0  0  0  0  0  0  0  0  0  0
   -4.6952    2.5840   -1.1535 N   0  0  0  0  0  0  0  0  0  0  0  0
   -4.0935    3.7443   -1.4755 C   0  0  0  0  0  0  0  0  0  0  0  0
   -2.7384    3.4963   -1.2590 C   0  0  0  0  0  0  0  0  0  0  0  0
   -2.5663    2.2313   -0.8303 N   0  0  0  0  0  0  0  0  0  0  0  0
   -1.4333    1.5409   -0.4901 C   0  0  0  0  0  0  0  0  0  0  0  0
   -1.9334   -2.1457    2.3164 H   0  0  0  0  0  0  0  0  0  0  0  0
   -1.0059   -1.2476    3.5246 H   0  0  0  0  0  0  0  0  0  0  0  0
   -2.0204   -0.2977    2.4602 H   0  0  0  0  0  0  0  0  0  0  0  0
    0.9524   -2.3330    2.9519 H   0  0  0  0  0  0  0  0  0  0  0  0
    2.9780   -2.1599    1.7460 H   0  0  0  0  0  0  0  0  0  0  0  0
    3.3798    0.2078   -1.0443 H   0  0  0  0  0  0  0  0  0  0  0  0
    5.5045   -1.5294   -2.9814 H   0  0  0  0  0  0  0  0  0  0  0  0
    7.5994   -0.5159   -3.7177 H   0  0  0  0  0  0  0  0  0  0  0  0
    9.0734    0.6470   -2.1442 H   0  0  0  0  0  0  0  0  0  0  0  0
    6.3253   -0.2382    1.0080 H   0  0  0  0  0  0  0  0  0  0  0  0
    0.8955    0.1988   -1.2366 H   0  0  0  0  0  0  0  0  0  0  0  0
   -2.7930   -1.3985    0.2926 H   0  0  0  0  0  0  0  0  0  0  0  0
   -4.6771   -2.4158   -0.2714 H   0  0  0  0  0  0  0  0  0  0  0  0
   -4.4905   -1.6892    1.3468 H   0  0  0  0  0  0  0  0  0  0  0  0
   -6.5577   -2.9181    1.4144 H   0  0  0  0  0  0  0  0  0  0  0  0
   -7.0208   -2.4021   -0.2205 H   0  0  0  0  0  0  0  0  0  0  0  0
   -8.0798    0.7720    0.7696 H   0  0  0  0  0  0  0  0  0  0  0  0
   -6.4363    0.7879    1.5045 H   0  0  0  0  0  0  0  0  0  0  0  0
   -6.9506   -0.6427   -1.1540 H   0  0  0  0  0  0  0  0  0  0  0  0
   -6.5191    1.0639   -1.0483 H   0  0  0  0  0  0  0  0  0  0  0  0
   -4.5806    4.6545   -1.8298 H   0  0  0  0  0  0  0  0  0  0  0  0
   -1.9442    4.1973   -1.4028 H   0  0  0  0  0  0  0  0  0  0  0  0
   -0.4744    2.0099   -0.5599 H   0  0  0  0  0  0  0  0  0  0  0  0
  1  2  1  0
  2  3  2  0
  3  4  1  0
  4  5  2  0
  5  6  1  0
  6  7  1  0
  7  8  2  0
  7  9  1  0
  9 10  2  0
 10 11  1  0
 11 12  2  0
 12 13  1  0
 13 14  2  0
 13 15  1  0
 15 16  1  0
 15 17  1  0
 15 18  1  0
  5 19  1  0
 19 20  2  0
 20 21  1  0
 21 22  1  0
 22 23  2  0
 23 24  1  0
 24 25  1  0
 25 26  1  0
 26 27  1  0
 27 28  1  0
 28 29  1  0
 23 30  1  0
 30 31  2  0
 31 32  1  0
 32 33  2  0
 33 34  1  0
 34 35  1  0
 20  2  1  0
 35 21  2  0
 14  9  1  0
 29 24  1  0
 34 30  1  0
  1 36  1  0
  1 37  1  0
  1 38  1  0
  3 39  1  0
  4 40  1  0
  6 41  1  0
 10 42  1  0
 11 43  1  0
 12 44  1  0
 14 45  1  0
 19 46  1  0
 22 47  1  0
 25 48  1  0
 25 49  1  0
 26 50  1  0
 26 51  1  0
 28 52  1  0
 28 53  1  0
 29 54  1  0
 29 55  1  0
 32 56  1  0
 33 57  1  0
 35 58  1  0
M  END
$$$$
[H]c1c([H])c([H])c2c(c1[H])c(C([H])([H])[C@@]([H])(C(=O)N1C([H])([H])C([H])([H])C([H])([H])[C@@]1([H])C(=O)N([H])[C@]([H])(C(=O)N([H])[C@]([H])(C(=O)N([H])[H])C([H])([H])C([H])(C([H])([H])[H])C([H])([H])[H])C([H])([H])c1c([H])n([H])c3c([H])c([H])c([H])c([H])c13)N([H])[H])c([H])n2[H]
     RDKit          3D

 85 89  0  0  0  0  0  0  0  0999 V2000
   -5.5081   -4.7965   -0.7837 C   0  0  0  0  0  0  0  0  0  0  0  0
   -5.2895   -4.6755    0.7131 C   0  0  0  0  0  0  0  0  0  0  0  0
   -6.5749   -4.7546    1.4389 C   0  0  0  0  0  0  0  0  0  0  0  0
   -4.3421   -3.6034    1.0896 C   0  0  0  0  0  0  0  0  0  0  0  0
   -4.6440   -2.2068    0.6679 C   0  0  2  0  0  0  0  0  0  0  0  0
   -3.5336   -1.3801    1.1953 N   0  0  0  0  0  0  0  0  0  0  0  0
   -2.5120   -0.8742    0.3766 C   0  0  0  0  0  0  0  0  0  0  0  0
   -2.5244   -1.1353   -0.8536 O   0  0  0  0  0  0  0  0  0  0  0  0
   -1.3896   -0.0280    0.8950 C   0  0  2  0  0  0  0  0  0  0  0  0
   -1.9908    1.2304    1.5148 C   0  0  0  0  0  0  0  0  0  0  0  0
   -2.7504    2.0705    0.6081 C   0  0  0  0  0  0  0  0  0  0  0  0
   -4.1320    2.0292    0.3807 C   0  0  0  0  0  0  0  0  0  0  0  0
   -4.4570    2.9270   -0.5596 N   0  0  0  0  0  0  0  0  0  0  0  0
   -3.3607    3.5657   -0.9693 C   0  0  0  0  0  0  0  0  0  0  0  0
   -3.2191    4.5727   -1.9036 C   0  0  0  0  0  0  0  0  0  0  0  0
   -1.9622    5.0813   -2.1294 C   0  0  0  0  0  0  0  0  0  0  0  0
   -0.8730    4.6006   -1.4428 C   0  0  0  0  0  0  0  0  0  0  0  0
   -1.0416    3.5940   -0.5159 C   0  0  0  0  0  0  0  0  0  0  0  0
   -2.2862    3.0403   -0.2470 C   0  0  0  0  0  0  0  0  0  0  0  0
   -0.4605    0.2918   -0.1570 N   0  0  0  0  0  0  0  0  0  0  0  0
    0.9691    0.2847    0.0030 C   0  0  0  0  0  0  0  0  0  0  0  0
    1.3698   -0.0197    1.1381 O   0  0  0  0  0  0  0  0  0  0  0  0
    1.8032    0.6238   -1.1323 C   0  0  2  0  0  0  0  0  0  0  0  0
    2.3505   -0.6669   -1.7802 C   0  0  0  0  0  0  0  0  0  0  0  0
    3.5355   -0.1894   -2.5391 C   0  0  0  0  0  0  0  0  0  0  0  0
    3.7192    1.2712   -2.2104 C   0  0  0  0  0  0  0  0  0  0  0  0
    2.9818    1.3876   -0.9520 N   0  0  0  0  0  0  0  0  0  0  0  0
    3.4461    2.2018    0.1037 C   0  0  0  0  0  0  0  0  0  0  0  0
    2.6693    2.3324    1.1146 O   0  0  0  0  0  0  0  0  0  0  0  0
    4.7272    2.9068    0.1311 C   0  0  1  0  0  0  0  0  0  0  0  0
    4.4570    4.1218    0.9769 N   0  0  0  0  0  0  0  0  0  0  0  0
    5.8787    2.2689    0.8042 C   0  0  0  0  0  0  0  0  0  0  0  0
    6.3667    0.9813    0.3491 C   0  0  0  0  0  0  0  0  0  0  0  0
    7.3978    0.7595   -0.5587 C   0  0  0  0  0  0  0  0  0  0  0  0
    7.5216   -0.5573   -0.7416 N   0  0  0  0  0  0  0  0  0  0  0  0
    6.6228   -1.2261    0.0013 C   0  0  0  0  0  0  0  0  0  0  0  0
    6.3416   -2.5613    0.1856 C   0  0  0  0  0  0  0  0  0  0  0  0
    5.3394   -2.9761    1.0505 C   0  0  0  0  0  0  0  0  0  0  0  0
    4.6138   -2.0417    1.7359 C   0  0  0  0  0  0  0  0  0  0  0  0
    4.8999   -0.7080    1.5464 C   0  0  0  0  0  0  0  0  0  0  0  0
    5.8967   -0.2732    0.6863 C   0  0  0  0  0  0  0  0  0  0  0  0
   -5.8666   -1.6061    1.2044 C   0  0  0  0  0  0  0  0  0  0  0  0
   -7.1434   -1.7178    0.5949 N   0  0  0  0  0  0  0  0  0  0  0  0
   -5.8104   -0.9341    2.2784 O   0  0  0  0  0  0  0  0  0  0  0  0
   -4.6318   -5.1926   -1.3266 H   0  0  0  0  0  0  0  0  0  0  0  0
   -6.3406   -5.5469   -0.9071 H   0  0  0  0  0  0  0  0  0  0  0  0
   -5.9006   -3.8611   -1.2145 H   0  0  0  0  0  0  0  0  0  0  0  0
   -4.7339   -5.6575    0.9672 H   0  0  0  0  0  0  0  0  0  0  0  0
   -6.6507   -4.0949    2.3358 H   0  0  0  0  0  0  0  0  0  0  0  0
   -7.4755   -4.6893    0.7799 H   0  0  0  0  0  0  0  0  0  0  0  0
   -6.6714   -5.7942    1.8884 H   0  0  0  0  0  0  0  0  0  0  0  0
   -3.3410   -3.8651    0.6387 H   0  0  0  0  0  0  0  0  0  0  0  0
   -4.1491   -3.6162    2.1932 H   0  0  0  0  0  0  0  0  0  0  0  0
   -4.5760   -2.1541   -0.4593 H   0  0  0  0  0  0  0  0  0  0  0  0
   -3.5078   -1.1636    2.2161 H   0  0  0  0  0  0  0  0  0  0  0  0
   -0.8928   -0.5431    1.7323 H   0  0  0  0  0  0  0  0  0  0  0  0
   -2.6763    0.8480    2.3238 H   0  0  0  0  0  0  0  0  0  0  0  0
   -1.1503    1.7412    2.0357 H   0  0  0  0  0  0  0  0  0  0  0  0
   -4.8131    1.3668    0.8966 H   0  0  0  0  0  0  0  0  0  0  0  0
   -5.4340    3.0665   -0.8860 H   0  0  0  0  0  0  0  0  0  0  0  0
   -4.0467    4.9705   -2.4552 H   0  0  0  0  0  0  0  0  0  0  0  0
   -1.8082    5.8791   -2.8583 H   0  0  0  0  0  0  0  0  0  0  0  0
    0.1390    4.9696   -1.5848 H   0  0  0  0  0  0  0  0  0  0  0  0
   -0.1967    3.2076    0.0550 H   0  0  0  0  0  0  0  0  0  0  0  0
   -0.8568    0.5356   -1.0867 H   0  0  0  0  0  0  0  0  0  0  0  0
    1.1699    1.1135   -1.9180 H   0  0  0  0  0  0  0  0  0  0  0  0
    1.5688   -1.1296   -2.4196 H   0  0  0  0  0  0  0  0  0  0  0  0
    2.6556   -1.3191   -0.9330 H   0  0  0  0  0  0  0  0  0  0  0  0
    3.3831   -0.2819   -3.6392 H   0  0  0  0  0  0  0  0  0  0  0  0
    4.4787   -0.7188   -2.2366 H   0  0  0  0  0  0  0  0  0  0  0  0
    3.1797    1.9105   -2.9882 H   0  0  0  0  0  0  0  0  0  0  0  0
    4.7496    1.6073   -2.1715 H   0  0  0  0  0  0  0  0  0  0  0  0
    4.9808    3.3341   -0.8463 H   0  0  0  0  0  0  0  0  0  0  0  0
    3.5058    4.4710    0.7609 H   0  0  0  0  0  0  0  0  0  0  0  0
    5.2234    4.8081    0.8524 H   0  0  0  0  0  0  0  0  0  0  0  0
    6.7429    3.0051    0.7169 H   0  0  0  0  0  0  0  0  0  0  0  0
    5.6821    2.2364    1.9070 H   0  0  0  0  0  0  0  0  0  0  0  0
    7.9917    1.5541   -1.0301 H   0  0  0  0  0  0  0  0  0  0  0  0
    8.2055   -1.0696   -1.3660 H   0  0  0  0  0  0  0  0  0  0  0  0
    6.9287   -3.3050   -0.3693 H   0  0  0  0  0  0  0  0  0  0  0  0
    5.1110   -4.0120    1.2036 H   0  0  0  0  0  0  0  0  0  0  0  0
    3.8251   -2.3110    2.4199 H   0  0  0  0  0  0  0  0  0  0  0  0
    4.3092    0.0077    2.1129 H   0  0  0  0  0  0  0  0  0  0  0  0
   -7.2080   -1.7917   -0.4323 H   0  0  0  0  0  0  0  0  0  0  0  0
   -8.0049   -1.7264    1.1617 H   0  0  0  0  0  0  0  0  0  0  0  0
  1  2  1  0
  2  3  1  0
  2  4  1  0
  4  5  1  0
  5  6  1  0
  6  7  1  0
  7  8  2  0
  7  9  1  0
  9 10  1  0
 10 11  1  0
 11 12  2  0
 12 13  1  0
 13 14  1  0
 14 15  2  0
 15 16  1  0
 16 17  2  0
 17 18  1  0
 18 19  2  0
  9 20  1  0
 20 21  1  0
 21 22  2  0
 21 23  1  0
 23 24  1  0
 24 25  1  0
 25 26  1  0
 26 27  1  0
 27 28  1  0
 28 29  2  0
 28 30  1  0
 30 31  1  0
 30 32  1  0
 32 33  1  0
 33 34  2  0
 34 35  1  0
 35 36  1  0
 36 37  2  0
 37 38  1  0
 38 39  2  0
 39 40  1  0
 40 41  2  0
  5 42  1  0
 42 43  1  0
 42 44  2  0
 19 11  1  0
 27 23  1  0
 41 33  1  0
 19 14  1  0
 41 36  1  0
  1 45  1  0
  1 46  1  0
  1 47  1  0
  2 48  1  0
  3 49  1  0
  3 50  1  0
  3 51  1  0
  4 52  1  0
  4 53  1  0
  5 54  1  6
  6 55  1  0
  9 56  1  1
 10 57  1  0
 10 58  1  0
 12 59  1  0
 13 60  1  0
 15 61  1  0
 16 62  1  0
 17 63  1  0
 18 64  1  0
 20 65  1  0
 23 66  1  6
 24 67  1  0
 24 68  1  0
 25 69  1  0
 25 70  1  0
 26 71  1  0
 26 72  1  0
 30 73  1  6
 31 74  1  0
 31 75  1  0
 32 76  1  0
 32 77  1  0
 34 78  1  0
 35 79  1  0
 37 80  1  0
 38 81  1  0
 39 82  1  0
 40 83  1  0
 43 84  1  0
 43 85  1  0
M  END
$$$$
[H]c1c([H])c(Cl)c([H])c(S(=O)(=O)N([H])c2c([H])c([H])c3c(c2[H])c(C([H])([H])C([H])([H])N(C([H])([H])[H])C([H])([H])[H])c([H])n3[H])c1[H]
     RDKit          3D

 45 47  0  0  0  0  0  0  0  0999 V2000
    4.4801    0.7976    2.2086 C   0  0  0  0  0  0  0  0  0  0  0  0
    4.2640    0.1717    0.9476 N   0  0  0  0  0  0  0  0  0  0  0  0
    5.3293    0.2808    0.0170 C   0  0  0  0  0  0  0  0  0  0  0  0
    3.5605   -1.0542    0.9798 C   0  0  0  0  0  0  0  0  0  0  0  0
    3.2888   -1.7281   -0.3116 C   0  0  0  0  0  0  0  0  0  0  0  0
    2.4624   -0.9047   -1.2467 C   0  0  0  0  0  0  0  0  0  0  0  0
    2.8617   -0.2079   -2.3588 C   0  0  0  0  0  0  0  0  0  0  0  0
    1.7787    0.3848   -2.8902 N   0  0  0  0  0  0  0  0  0  0  0  0
    0.6884    0.1069   -2.1757 C   0  0  0  0  0  0  0  0  0  0  0  0
   -0.6489    0.4314   -2.2524 C   0  0  0  0  0  0  0  0  0  0  0  0
   -1.5902   -0.0242   -1.3299 C   0  0  0  0  0  0  0  0  0  0  0  0
   -1.1844   -0.8236   -0.3041 C   0  0  0  0  0  0  0  0  0  0  0  0
   -2.0193   -1.3811    0.6790 N   0  0  0  0  0  0  0  0  0  0  0  0
   -3.0462   -0.4949    1.6730 S   0  0  0  0  0  0  0  0  0  0  0  0
   -3.7185   -1.4613    2.6553 O   0  0  0  0  0  0  0  0  0  0  0  0
   -2.2511    0.4999    2.5370 O   0  0  0  0  0  0  0  0  0  0  0  0
   -4.2665    0.3876    0.8036 C   0  0  0  0  0  0  0  0  0  0  0  0
   -4.1721    1.7750    0.6457 C   0  0  0  0  0  0  0  0  0  0  0  0
   -5.1543    2.4478   -0.0464 C   0  0  0  0  0  0  0  0  0  0  0  0
   -6.2500    1.7799   -0.5993 C   0  0  0  0  0  0  0  0  0  0  0  0
   -6.3530    0.4130   -0.4498 C   0  0  0  0  0  0  0  0  0  0  0  0
   -7.7219   -0.4276   -1.1403 Cl  0  0  0  0  0  0  0  0  0  0  0  0
   -5.3561   -0.2555    0.2505 C   0  0  0  0  0  0  0  0  0  0  0  0
    0.1766   -1.1616   -0.2157 C   0  0  0  0  0  0  0  0  0  0  0  0
    1.0824   -0.7013   -1.1355 C   0  0  0  0  0  0  0  0  0  0  0  0
    3.7473    0.4300    2.9617 H   0  0  0  0  0  0  0  0  0  0  0  0
    4.4223    1.9102    2.1021 H   0  0  0  0  0  0  0  0  0  0  0  0
    5.4838    0.5114    2.5801 H   0  0  0  0  0  0  0  0  0  0  0  0
    5.1680    1.1134   -0.6758 H   0  0  0  0  0  0  0  0  0  0  0  0
    5.5043   -0.6763   -0.4677 H   0  0  0  0  0  0  0  0  0  0  0  0
    6.2695    0.4949    0.6084 H   0  0  0  0  0  0  0  0  0  0  0  0
    2.5607   -0.8482    1.4659 H   0  0  0  0  0  0  0  0  0  0  0  0
    4.0684   -1.7481    1.6741 H   0  0  0  0  0  0  0  0  0  0  0  0
    4.1459   -2.1315   -0.8428 H   0  0  0  0  0  0  0  0  0  0  0  0
    2.6397   -2.6237   -0.0706 H   0  0  0  0  0  0  0  0  0  0  0  0
    3.8935   -0.1526   -2.7411 H   0  0  0  0  0  0  0  0  0  0  0  0
    1.7777    0.9848   -3.7468 H   0  0  0  0  0  0  0  0  0  0  0  0
   -1.0083    1.0618   -3.0494 H   0  0  0  0  0  0  0  0  0  0  0  0
   -2.6262    0.2355   -1.4357 H   0  0  0  0  0  0  0  0  0  0  0  0
   -1.9768   -2.4442    0.7776 H   0  0  0  0  0  0  0  0  0  0  0  0
   -3.3176    2.2950    1.0771 H   0  0  0  0  0  0  0  0  0  0  0  0
   -5.0774    3.5260   -0.1672 H   0  0  0  0  0  0  0  0  0  0  0  0
   -7.0085    2.3388   -1.1395 H   0  0  0  0  0  0  0  0  0  0  0  0
   -5.4403   -1.3327    0.3664 H   0  0  0  0  0  0  0  0  0  0  0  0
    0.5337   -1.7948    0.5850 H   0  0  0  0  0  0  0  0  0  0  0  0
  1  2  1  0
  2  3  1  0
  2  4  1  0
  4  5  1  0
  5  6  1  0
  6  7  2  0
  7  8  1  0
  8  9  1  0
  9 10  2  0
 10 11  1  0
 11 12  2  0
 12 13  1  0
 13 14  1  0
 14 15  2  0
 14 16  2  0
 14 17  1  0
 17 18  2  0
 18 19  1  0
 19 20  2  0
 20 21  1  0
 21 22  1  0
 21 23  2  0
 12 24  1  0
 24 25  2  0
 25  6  1  0
 25  9  1  0
 23 17  1  0
  1 26  1  0
  1 27  1  0
  1 28  1  0
  3 29  1  0
  3 30  1  0
  3 31  1  0
  4 32  1  0
  4 33  1  0
  5 34  1  0
  5 35  1  0
  7 36  1  0
  8 37  1  0
 10 38  1  0
 11 39  1  0
 13 40  1  0
 18 41  1  0
 19 42  1  0
 20 43  1  0
 23 44  1  0
 24 45  1  0
M  END
$$$$
[H]C1=C(C(=O)[O-])N2C(=O)/C(=C(\[H])c3sc4c(c3[H])C(=O)OC4([H])[H])[C@@]2([H])S1
     RDKit          3D

 27 30  0  0  0  0  0  0  0  0999 V2000
   -5.9387    2.0425    0.3881 O   0  0  0  0  0  0  0  0  0  0  0  0
   -5.1581    1.1420   -0.3177 C   0  0  0  0  0  0  0  0  0  0  0  0
   -5.6437    0.6323   -1.3435 O   0  0  0  0  0  0  0  0  0  0  0  0
   -3.8042    0.7869    0.1074 C   0  0  0  0  0  0  0  0  0  0  0  0
   -3.3252    1.3361    1.1941 C   0  0  0  0  0  0  0  0  0  0  0  0
   -1.6765    0.6981    1.4254 S   0  0  0  0  0  0  0  0  0  0  0  0
   -1.8540   -0.6177    0.2270 C   0  0  1  0  0  0  0  0  0  0  0  0
   -2.9598   -0.0919   -0.5690 N   0  0  0  0  0  0  0  0  0  0  0  0
   -2.4395   -0.8646   -1.6269 C   0  0  0  0  0  0  0  0  0  0  0  0
   -2.7980   -1.4916   -2.6522 O   0  0  0  0  0  0  0  0  0  0  0  0
   -1.1058   -0.6398   -0.9965 C   0  0  0  0  0  0  0  0  0  0  0  0
    0.0906   -0.5436   -1.4936 C   0  0  0  0  0  0  0  0  0  0  0  0
    1.2358   -0.3225   -0.6086 C   0  0  0  0  0  0  0  0  0  0  0  0
    2.4503   -0.9840   -0.6209 C   0  0  0  0  0  0  0  0  0  0  0  0
    3.3816   -0.5901    0.2617 C   0  0  0  0  0  0  0  0  0  0  0  0
    4.7745   -0.9578    0.6384 C   0  0  0  0  0  0  0  0  0  0  0  0
    5.4976   -1.8674    0.1237 O   0  0  0  0  0  0  0  0  0  0  0  0
    5.1912   -0.1450    1.6619 O   0  0  0  0  0  0  0  0  0  0  0  0
    4.2020    0.7540    2.0339 C   0  0  0  0  0  0  0  0  0  0  0  0
    3.0627    0.4328    1.1043 C   0  0  0  0  0  0  0  0  0  0  0  0
    1.4687    0.8194    0.6446 S   0  0  0  0  0  0  0  0  0  0  0  0
   -3.7485    2.0486    1.8916 H   0  0  0  0  0  0  0  0  0  0  0  0
   -2.1447   -1.6135    0.6562 H   0  0  0  0  0  0  0  0  0  0  0  0
    0.2279   -0.6262   -2.5814 H   0  0  0  0  0  0  0  0  0  0  0  0
    2.5716   -1.8123   -1.3634 H   0  0  0  0  0  0  0  0  0  0  0  0
    3.8667    0.6881    3.0916 H   0  0  0  0  0  0  0  0  0  0  0  0
    4.5753    1.7873    1.8796 H   0  0  0  0  0  0  0  0  0  0  0  0
  1  2  1  0
  2  3  2  0
  2  4  1  0
  4  5  2  0
  5  6  1  0
  6  7  1  0
  7  8  1  0
  8  9  1  0
  9 10  2  0
  9 11  1  0
 11 12  2  0
 12 13  1  0
 13 14  2  0
 14 15  1  0
 15 16  1  0
 16 17  2  0
 16 18  1  0
 18 19  1  0
 19 20  1  0
 20 21  1  0
  8  4  1  0
 21 13  1  0
 11  7  1  0
 20 15  2  0
  5 22  1  0
  7 23  1  1
 12 24  1  0
 14 25  1  0
 19 26  1  0
 19 27  1  0
M  CHG  1   1  -1
M  END
$$$$
[H]c1nc([C@]2(c3c([H])c([H])c([H])c([H])c3[H])C([H])([H])[C@@]2([H])C([H])([H])N([H])[H])c([H])c([H])c1[H]
     RDKit          3D

 33 35  0  0  0  0  0  0  0  0999 V2000
   -3.0995   -2.3631   -0.9811 N   0  0  0  0  0  0  0  0  0  0  0  0
   -2.2347   -1.8727    0.1039 C   0  0  0  0  0  0  0  0  0  0  0  0
   -1.7619   -0.5149   -0.3073 C   0  0  2  0  0  0  0  0  0  0  0  0
   -0.9601   -0.4079   -1.5977 C   0  0  0  0  0  0  0  0  0  0  0  0
   -0.4193   -0.0059   -0.1937 C   0  0  2  0  0  0  0  0  0  0  0  0
    0.7695   -0.7759    0.1738 C   0  0  0  0  0  0  0  0  0  0  0  0
    1.8846   -0.6201   -0.6604 C   0  0  0  0  0  0  0  0  0  0  0  0
    3.0440   -1.2850   -0.4154 C   0  0  0  0  0  0  0  0  0  0  0  0
    3.1375   -2.1309    0.6701 C   0  0  0  0  0  0  0  0  0  0  0  0
    2.0529   -2.2842    1.4839 C   0  0  0  0  0  0  0  0  0  0  0  0
    0.8708   -1.6165    1.2479 C   0  0  0  0  0  0  0  0  0  0  0  0
   -0.2250    1.4803   -0.0273 C   0  0  0  0  0  0  0  0  0  0  0  0
   -0.0203    1.9782    1.2353 C   0  0  0  0  0  0  0  0  0  0  0  0
    0.1618    3.3224    1.4401 C   0  0  0  0  0  0  0  0  0  0  0  0
    0.1341    4.1719    0.3351 C   0  0  0  0  0  0  0  0  0  0  0  0
   -0.0768    3.5927   -0.8983 C   0  0  0  0  0  0  0  0  0  0  0  0
   -0.2535    2.2812   -1.0897 N   0  0  0  0  0  0  0  0  0  0  0  0
   -2.6426   -2.1460   -1.8991 H   0  0  0  0  0  0  0  0  0  0  0  0
   -4.0396   -1.8961   -0.9161 H   0  0  0  0  0  0  0  0  0  0  0  0
   -1.4404   -2.6226    0.2010 H   0  0  0  0  0  0  0  0  0  0  0  0
   -2.8785   -1.7711    1.0014 H   0  0  0  0  0  0  0  0  0  0  0  0
   -2.5880    0.2546   -0.2649 H   0  0  0  0  0  0  0  0  0  0  0  0
   -1.1598    0.4221   -2.2918 H   0  0  0  0  0  0  0  0  0  0  0  0
   -0.6489   -1.3747   -2.0049 H   0  0  0  0  0  0  0  0  0  0  0  0
    1.8390    0.0469   -1.5321 H   0  0  0  0  0  0  0  0  0  0  0  0
    3.8829   -1.1324   -1.0905 H   0  0  0  0  0  0  0  0  0  0  0  0
    4.0699   -2.6397    0.8323 H   0  0  0  0  0  0  0  0  0  0  0  0
    2.0900   -2.9393    2.3444 H   0  0  0  0  0  0  0  0  0  0  0  0
    0.0071   -1.7311    1.8875 H   0  0  0  0  0  0  0  0  0  0  0  0
   -0.0006    1.3146    2.0821 H   0  0  0  0  0  0  0  0  0  0  0  0
    0.3250    3.7399    2.4261 H   0  0  0  0  0  0  0  0  0  0  0  0
    0.2747    5.2479    0.4541 H   0  0  0  0  0  0  0  0  0  0  0  0
   -0.0944    4.2772   -1.7488 H   0  0  0  0  0  0  0  0  0  0  0  0
  1  2  1  0
  2  3  1  0
  3  4  1  0
  4  5  1  0
  5  6  1  1
  6  7  2  0
  7  8  1  0
  8  9  2  0
  9 10  1  0
 10 11  2  0
  5 12  1  0
 12 13  2  0
 13 14  1  0
 14 15  2  0
 15 16  1  0
 16 17  2  0
  5  3  1  0
 11  6  1  0
 17 12  1  0
  1 18  1  0
  1 19  1  0
  2 20  1  0
  2 21  1  0
  3 22  1  6
  4 23  1  0
  4 24  1  0
  7 25  1  0
  8 26  1  0
  9 27  1  0
 10 28  1  0
 11 29  1  0
 13 30  1  0
 14 31  1  0
 15 32  1  0
 16 33  1  0
M  END
$$$$
[H]C1=C([H])C([H])(F)C([H])([H])C([H])=C1N([H])C(=O)C1(C(=O)N([H])c2c([H])c([H])c(Oc3nc([H])nc4c([H])c(OC([H])([H])C([H])([H])C([H])([H])N5C([H])([H])C([H])([H])OC([H])([H])C5([H])[H])c(OC([H])([H])[H])c([H])c34)c(F)c2[H])C([H])([H])C1([H])[H]
     RDKit          3D

 81 86  0  0  0  0  0  0  0  0999 V2000
   -4.0515   -0.6409   -2.8413 C   0  0  0  0  0  0  0  0  0  0  0  0
   -4.6943   -0.4364   -1.6206 O   0  0  0  0  0  0  0  0  0  0  0  0
   -4.0851   -0.3386   -0.3852 C   0  0  0  0  0  0  0  0  0  0  0  0
   -2.7230   -0.4336   -0.1953 C   0  0  0  0  0  0  0  0  0  0  0  0
   -2.1222   -0.3348    1.0425 C   0  0  0  0  0  0  0  0  0  0  0  0
   -0.7333   -0.4407    1.1922 C   0  0  0  0  0  0  0  0  0  0  0  0
    0.0254   -0.6437    0.0499 O   0  0  0  0  0  0  0  0  0  0  0  0
    1.3837   -0.7741    0.1461 C   0  0  0  0  0  0  0  0  0  0  0  0
    2.2120    0.1326   -0.4491 C   0  0  0  0  0  0  0  0  0  0  0  0
    3.5749    0.0315   -0.3745 C   0  0  0  0  0  0  0  0  0  0  0  0
    4.1428   -1.0238    0.3268 C   0  0  0  0  0  0  0  0  0  0  0  0
    5.5728   -1.0585    0.3886 N   0  0  0  0  0  0  0  0  0  0  0  0
    6.3762   -2.1648    0.5496 C   0  0  0  0  0  0  0  0  0  0  0  0
    5.7925   -3.3040    0.6738 O   0  0  0  0  0  0  0  0  0  0  0  0
    7.8416   -2.2283    0.6087 C   0  0  0  0  0  0  0  0  0  0  0  0
    8.4640   -3.5987    0.3210 C   0  0  0  0  0  0  0  0  0  0  0  0
    8.3635   -3.1383    1.7041 C   0  0  0  0  0  0  0  0  0  0  0  0
    8.7177   -1.1384    0.1785 C   0  0  0  0  0  0  0  0  0  0  0  0
    9.9499   -1.2750    0.5944 O   0  0  0  0  0  0  0  0  0  0  0  0
    8.4252   -0.0207   -0.5938 N   0  0  0  0  0  0  0  0  0  0  0  0
    9.4827    0.9183   -0.8629 C   0  0  0  0  0  0  0  0  0  0  0  0
    9.8306    1.1676   -2.0993 C   0  0  0  0  0  0  0  0  0  0  0  0
   10.8852    2.0959   -2.5321 C   0  0  0  0  0  0  0  0  0  0  0  0
   11.6088    2.7822   -1.4275 C   0  0  0  0  0  0  0  0  0  0  0  0
   12.9572    2.4033   -1.4812 F   0  0  0  0  0  0  0  0  0  0  0  0
   11.1404    2.4330   -0.0737 C   0  0  0  0  0  0  0  0  0  0  0  0
   10.1834    1.5956    0.2160 C   0  0  0  0  0  0  0  0  0  0  0  0
    3.3505   -1.9387    0.9283 C   0  0  0  0  0  0  0  0  0  0  0  0
    1.9521   -1.8070    0.8326 C   0  0  0  0  0  0  0  0  0  0  0  0
    1.1964   -2.7339    1.4232 F   0  0  0  0  0  0  0  0  0  0  0  0
   -0.2512   -0.3356    2.4237 N   0  0  0  0  0  0  0  0  0  0  0  0
   -1.0585   -0.1373    3.4729 C   0  0  0  0  0  0  0  0  0  0  0  0
   -2.3870   -0.0334    3.3510 N   0  0  0  0  0  0  0  0  0  0  0  0
   -2.9383   -0.1316    2.1266 C   0  0  0  0  0  0  0  0  0  0  0  0
   -4.3143   -0.0342    1.9460 C   0  0  0  0  0  0  0  0  0  0  0  0
   -4.8823   -0.1364    0.7061 C   0  0  0  0  0  0  0  0  0  0  0  0
   -6.2649   -0.0266    0.6254 O   0  0  0  0  0  0  0  0  0  0  0  0
   -7.0851    0.1850    1.7437 C   0  0  0  0  0  0  0  0  0  0  0  0
   -8.5235    0.2583    1.3403 C   0  0  0  0  0  0  0  0  0  0  0  0
   -8.7846    1.3714    0.3782 C   0  0  0  0  0  0  0  0  0  0  0  0
  -10.1956    1.3772    0.0375 N   0  0  0  0  0  0  0  0  0  0  0  0
  -10.4072    2.4684   -0.8974 C   0  0  0  0  0  0  0  0  0  0  0  0
  -10.7550    1.9220   -2.2809 C   0  0  0  0  0  0  0  0  0  0  0  0
  -11.9166    1.1934   -2.1529 O   0  0  0  0  0  0  0  0  0  0  0  0
  -11.8477    0.1352   -1.2861 C   0  0  0  0  0  0  0  0  0  0  0  0
  -10.5771    0.0994   -0.4731 C   0  0  0  0  0  0  0  0  0  0  0  0
   -3.9894    0.3533   -3.3610 H   0  0  0  0  0  0  0  0  0  0  0  0
   -4.6892   -1.2908   -3.4967 H   0  0  0  0  0  0  0  0  0  0  0  0
   -3.0403   -1.0428   -2.7867 H   0  0  0  0  0  0  0  0  0  0  0  0
   -2.0731   -0.5936   -1.0463 H   0  0  0  0  0  0  0  0  0  0  0  0
    1.7623    0.9606   -1.0001 H   0  0  0  0  0  0  0  0  0  0  0  0
    4.2028    0.7474   -0.8441 H   0  0  0  0  0  0  0  0  0  0  0  0
    6.0286   -0.0992    0.3550 H   0  0  0  0  0  0  0  0  0  0  0  0
    7.7658   -4.3485   -0.0835 H   0  0  0  0  0  0  0  0  0  0  0  0
    9.4672   -3.6450   -0.1205 H   0  0  0  0  0  0  0  0  0  0  0  0
    7.6217   -3.5931    2.3764 H   0  0  0  0  0  0  0  0  0  0  0  0
    9.2750   -2.7386    2.2140 H   0  0  0  0  0  0  0  0  0  0  0  0
    7.5319    0.1846   -1.0255 H   0  0  0  0  0  0  0  0  0  0  0  0
    9.2922    0.6415   -2.8781 H   0  0  0  0  0  0  0  0  0  0  0  0
   11.5430    1.5868   -3.2595 H   0  0  0  0  0  0  0  0  0  0  0  0
   10.3662    2.9018   -3.1310 H   0  0  0  0  0  0  0  0  0  0  0  0
   11.6146    3.8921   -1.5339 H   0  0  0  0  0  0  0  0  0  0  0  0
   11.6428    2.9216    0.7542 H   0  0  0  0  0  0  0  0  0  0  0  0
    9.8760    1.3734    1.2511 H   0  0  0  0  0  0  0  0  0  0  0  0
    3.7375   -2.7583    1.4923 H   0  0  0  0  0  0  0  0  0  0  0  0
   -0.5867   -0.0628    4.4451 H   0  0  0  0  0  0  0  0  0  0  0  0
   -4.9127    0.1258    2.8326 H   0  0  0  0  0  0  0  0  0  0  0  0
   -6.9529   -0.7179    2.4069 H   0  0  0  0  0  0  0  0  0  0  0  0
   -6.7536    1.0497    2.3482 H   0  0  0  0  0  0  0  0  0  0  0  0
   -9.1760    0.4199    2.2254 H   0  0  0  0  0  0  0  0  0  0  0  0
   -8.7688   -0.7089    0.8283 H   0  0  0  0  0  0  0  0  0  0  0  0
   -8.4760    2.3428    0.8323 H   0  0  0  0  0  0  0  0  0  0  0  0
   -8.1430    1.2238   -0.5113 H   0  0  0  0  0  0  0  0  0  0  0  0
  -11.3073    3.0224   -0.5476 H   0  0  0  0  0  0  0  0  0  0  0  0
   -9.5744    3.1773   -0.9222 H   0  0  0  0  0  0  0  0  0  0  0  0
  -10.9606    2.7986   -2.9184 H   0  0  0  0  0  0  0  0  0  0  0  0
   -9.9475    1.2913   -2.6881 H   0  0  0  0  0  0  0  0  0  0  0  0
  -11.8872   -0.8088   -1.8759 H   0  0  0  0  0  0  0  0  0  0  0  0
  -12.7568    0.0999   -0.6193 H   0  0  0  0  0  0  0  0  0  0  0  0
  -10.7955   -0.5546    0.4221 H   0  0  0  0  0  0  0  0  0  0  0  0
   -9.7677   -0.4138   -1.0192 H   0  0  0  0  0  0  0  0  0  0  0  0
  1  2  1  0
  2  3  1  0
  3  4  2  0
  4  5  1  0
  5  6  2  0
  6  7  1  0
  7  8  1  0
  8  9  2  0
  9 10  1  0
 10 11  2  0
 11 12  1  0
 12 13  1  0
 13 14  2  0
 13 15  1  0
 15 16  1  0
 16 17  1  0
 15 18  1  0
 18 19  2  0
 18 20  1  0
 20 21  1  0
 21 22  2  0
 22 23  1  0
 23 24  1  0
 24 25  1  0
 24 26  1  0
 26 27  2  0
 11 28  1  0
 28 29  2  0
 29 30  1  0
  6 31  1  0
 31 32  2  0
 32 33  1  0
 33 34  2  0
 34 35  1  0
 35 36  2  0
 36 37  1  0
 37 38  1  0
 38 39  1  0
 39 40  1  0
 40 41  1  0
 41 42  1  0
 42 43  1  0
 43 44  1  0
 44 45  1  0
 45 46  1  0
 36  3  1  0
 46 41  1  0
 34  5  1  0
 29  8  1  0
 17 15  1  0
 27 21  1  0
  1 47  1  0
  1 48  1  0
  1 49  1  0
  4 50  1  0
  9 51  1  0
 10 52  1  0
 12 53  1  0
 16 54  1  0
 16 55  1  0
 17 56  1  0
 17 57  1  0
 20 58  1  0
 22 59  1  0
 23 60  1  0
 23 61  1  0
 24 62  1  0
 26 63  1  0
 27 64  1  0
 28 65  1  0
 32 66  1  0
 35 67  1  0
 38 68  1  0
 38 69  1  0
 39 70  1  0
 39 71  1  0
 40 72  1  0
 40 73  1  0
 42 74  1  0
 42 75  1  0
 43 76  1  0
 43 77  1  0
 45 78  1  0
 45 79  1  0
 46 80  1  0
 46 81  1  0
M  END
$$$$
[H]c1nc(C(C#N)(C([H])([H])[H])C([H])([H])[H])c([H])c(C(=O)N([H])c2c([H])nc(C([H])([H])[H])c(-c3c([H])nc(OC4([H])C([H])([H])C([H])([H])OC([H])([H])C4([H])[H])c(N4C([H])([H])C([H])([H])OC([H])([H])C4([H])[H])c3[H])c2[H])c1[H]
     RDKit          3D

 74 78  0  0  0  0  0  0  0  0999 V2000
   -0.8452    1.9797    2.6734 C   0  0  0  0  0  0  0  0  0  0  0  0
    0.3198    1.1968    2.1937 C   0  0  0  0  0  0  0  0  0  0  0  0
    1.5404    1.6389    2.6307 N   0  0  0  0  0  0  0  0  0  0  0  0
    2.6715    1.0979    2.2587 C   0  0  0  0  0  0  0  0  0  0  0  0
    2.7433   -0.0190    1.3515 C   0  0  0  0  0  0  0  0  0  0  0  0
    4.0104   -0.3847    0.9612 N   0  0  0  0  0  0  0  0  0  0  0  0
    4.6162   -1.5630    0.5333 C   0  0  0  0  0  0  0  0  0  0  0  0
    4.0276   -2.6450    0.4199 O   0  0  0  0  0  0  0  0  0  0  0  0
    6.0740   -1.4791    0.1989 C   0  0  0  0  0  0  0  0  0  0  0  0
    6.9670   -2.3228    0.7983 C   0  0  0  0  0  0  0  0  0  0  0  0
    8.3497   -2.1787    0.5626 C   0  0  0  0  0  0  0  0  0  0  0  0
    8.7395   -1.1954   -0.2644 N   0  0  0  0  0  0  0  0  0  0  0  0
    7.8806   -0.3486   -0.8765 C   0  0  0  0  0  0  0  0  0  0  0  0
    6.5156   -0.4732   -0.6560 C   0  0  0  0  0  0  0  0  0  0  0  0
    8.3762    0.7184   -1.7519 C   0  0  0  0  0  0  0  0  0  0  0  0
    8.9593    1.8789   -0.9469 C   0  0  0  0  0  0  0  0  0  0  0  0
    9.5463    0.1197   -2.5450 C   0  0  0  0  0  0  0  0  0  0  0  0
    7.3796    1.2171   -2.6775 C   0  0  0  0  0  0  0  0  0  0  0  0
    6.5952    1.6064   -3.4304 N   0  0  0  0  0  0  0  0  0  0  0  0
    1.5065   -0.4542    0.9232 C   0  0  0  0  0  0  0  0  0  0  0  0
    0.3110    0.1237    1.3191 C   0  0  0  0  0  0  0  0  0  0  0  0
   -1.0033   -0.2645    0.8249 C   0  0  0  0  0  0  0  0  0  0  0  0
   -1.1487   -0.4448   -0.5420 C   0  0  0  0  0  0  0  0  0  0  0  0
   -2.3510   -0.6199   -1.0501 N   0  0  0  0  0  0  0  0  0  0  0  0
   -3.5021   -0.6414   -0.3277 C   0  0  0  0  0  0  0  0  0  0  0  0
   -4.6954   -0.8226   -0.9413 O   0  0  0  0  0  0  0  0  0  0  0  0
   -4.9628   -1.1411   -2.2650 C   0  0  0  0  0  0  0  0  0  0  0  0
   -6.3136   -1.6853   -2.5514 C   0  0  0  0  0  0  0  0  0  0  0  0
   -7.4245   -0.6538   -2.4841 C   0  0  0  0  0  0  0  0  0  0  0  0
   -7.1087    0.4704   -3.2203 O   0  0  0  0  0  0  0  0  0  0  0  0
   -5.9491    1.0584   -2.6771 C   0  0  0  0  0  0  0  0  0  0  0  0
   -4.8079    0.1681   -3.0824 C   0  0  0  0  0  0  0  0  0  0  0  0
   -3.4138   -0.4657    1.0604 C   0  0  0  0  0  0  0  0  0  0  0  0
   -2.1542   -0.2877    1.5865 C   0  0  0  0  0  0  0  0  0  0  0  0
   -4.5589   -0.3793    1.8585 N   0  0  0  0  0  0  0  0  0  0  0  0
   -5.8260   -1.0432    1.6839 C   0  0  0  0  0  0  0  0  0  0  0  0
   -6.8537    0.0575    1.4905 C   0  0  0  0  0  0  0  0  0  0  0  0
   -6.8501    0.8574    2.6402 O   0  0  0  0  0  0  0  0  0  0  0  0
   -5.6283    1.5397    2.7355 C   0  0  0  0  0  0  0  0  0  0  0  0
   -4.5648    0.4835    3.0710 C   0  0  0  0  0  0  0  0  0  0  0  0
   -1.1798    1.6259    3.6941 H   0  0  0  0  0  0  0  0  0  0  0  0
   -1.6372    2.1537    1.9561 H   0  0  0  0  0  0  0  0  0  0  0  0
   -0.4725    3.0326    2.9435 H   0  0  0  0  0  0  0  0  0  0  0  0
    3.6476    1.4472    2.6235 H   0  0  0  0  0  0  0  0  0  0  0  0
    4.7708    0.4510    0.9565 H   0  0  0  0  0  0  0  0  0  0  0  0
    6.6731   -3.0969    1.4609 H   0  0  0  0  0  0  0  0  0  0  0  0
    9.0210   -2.8644    1.0640 H   0  0  0  0  0  0  0  0  0  0  0  0
    5.7953    0.1779   -1.1272 H   0  0  0  0  0  0  0  0  0  0  0  0
    8.2152    2.6825   -0.9669 H   0  0  0  0  0  0  0  0  0  0  0  0
    9.8428    2.2619   -1.5091 H   0  0  0  0  0  0  0  0  0  0  0  0
    9.2308    1.5561    0.0617 H   0  0  0  0  0  0  0  0  0  0  0  0
   10.4046    0.0259   -1.8271 H   0  0  0  0  0  0  0  0  0  0  0  0
    9.3009   -0.8701   -2.9342 H   0  0  0  0  0  0  0  0  0  0  0  0
    9.8245    0.7880   -3.3944 H   0  0  0  0  0  0  0  0  0  0  0  0
    1.4822   -1.2911    0.2488 H   0  0  0  0  0  0  0  0  0  0  0  0
   -0.2623   -0.4520   -1.1684 H   0  0  0  0  0  0  0  0  0  0  0  0
   -4.1772   -1.8346   -2.6751 H   0  0  0  0  0  0  0  0  0  0  0  0
   -6.3060   -2.0526   -3.6025 H   0  0  0  0  0  0  0  0  0  0  0  0
   -6.5578   -2.5343   -1.8450 H   0  0  0  0  0  0  0  0  0  0  0  0
   -8.3322   -1.1135   -2.9565 H   0  0  0  0  0  0  0  0  0  0  0  0
   -7.7280   -0.4081   -1.4616 H   0  0  0  0  0  0  0  0  0  0  0  0
   -6.0761    1.1160   -1.6055 H   0  0  0  0  0  0  0  0  0  0  0  0
   -5.8102    2.0416   -3.1723 H   0  0  0  0  0  0  0  0  0  0  0  0
   -3.8639    0.6430   -2.7497 H   0  0  0  0  0  0  0  0  0  0  0  0
   -4.8532   -0.0304   -4.1678 H   0  0  0  0  0  0  0  0  0  0  0  0
   -2.0689   -0.2138    2.6836 H   0  0  0  0  0  0  0  0  0  0  0  0
   -6.0863   -1.5159    2.6780 H   0  0  0  0  0  0  0  0  0  0  0  0
   -5.8834   -1.8255    0.9516 H   0  0  0  0  0  0  0  0  0  0  0  0
   -6.5957    0.7532    0.6629 H   0  0  0  0  0  0  0  0  0  0  0  0
   -7.8720   -0.3018    1.3184 H   0  0  0  0  0  0  0  0  0  0  0  0
   -5.6707    2.3221    3.4835 H   0  0  0  0  0  0  0  0  0  0  0  0
   -5.3793    1.9031    1.7223 H   0  0  0  0  0  0  0  0  0  0  0  0
   -3.6053    0.9034    3.2734 H   0  0  0  0  0  0  0  0  0  0  0  0
   -4.9583   -0.1794    3.8949 H   0  0  0  0  0  0  0  0  0  0  0  0
  1  2  1  0
  2  3  2  0
  3  4  1  0
  4  5  2  0
  5  6  1  0
  6  7  1  0
  7  8  2  0
  7  9  1  0
  9 10  2  0
 10 11  1  0
 11 12  2  0
 12 13  1  0
 13 14  2  0
 13 15  1  0
 15 16  1  0
 15 17  1  0
 15 18  1  0
 18 19  3  0
  5 20  1  0
 20 21  2  0
 21 22  1  0
 22 23  2  0
 23 24  1  0
 24 25  2  0
 25 26  1  0
 26 27  1  0
 27 28  1  0
 28 29  1  0
 29 30  1  0
 30 31  1  0
 31 32  1  0
 25 33  1  0
 33 34  2  0
 33 35  1  0
 35 36  1  0
 36 37  1  0
 37 38  1  0
 38 39  1  0
 39 40  1  0
 21  2  1  0
 34 22  1  0
 40 35  1  0
 14  9  1  0
 32 27  1  0
  1 41  1  0
  1 42  1  0
  1 43  1  0
  4 44  1  0
  6 45  1  0
 10 46  1  0
 11 47  1  0
 14 48  1  0
 16 49  1  0
 16 50  1  0
 16 51  1  0
 17 52  1  0
 17 53  1  0
 17 54  1  0
 20 55  1  0
 23 56  1  0
 27 57  1  0
 28 58  1  0
 28 59  1  0
 29 60  1  0
 29 61  1  0
 31 62  1  0
 31 63  1  0
 32 64  1  0
 32 65  1  0
 34 66  1  0
 36 67  1  0
 36 68  1  0
 37 69  1  0
 37 70  1  0
 39 71  1  0
 39 72  1  0
 40 73  1  0
 40 74  1  0
M  END
$$$$
[H]OC1(C(F)(F)F)c2c([H])c([H])c([H])c([H])c2-c2c(C(=O)N([H])[H])c([H])c(-c3c([H])nn(C([H])([H])[H])c3[H])c([H])c21
     RDKit          3D

 41 44  0  0  0  0  0  0  0  0999 V2000
    6.5168   -0.5976    0.1250 C   0  0  0  0  0  0  0  0  0  0  0  0
    5.1525   -0.6026    0.6554 N   0  0  0  0  0  0  0  0  0  0  0  0
    4.0551   -0.3239   -0.0723 C   0  0  0  0  0  0  0  0  0  0  0  0
    2.9276   -0.4167    0.7262 C   0  0  0  0  0  0  0  0  0  0  0  0
    3.3968   -0.7640    1.9687 C   0  0  0  0  0  0  0  0  0  0  0  0
    4.7551   -0.8664    1.8802 N   0  0  0  0  0  0  0  0  0  0  0  0
    1.5363   -0.1828    0.2904 C   0  0  0  0  0  0  0  0  0  0  0  0
    0.5229   -0.8584    0.8735 C   0  0  0  0  0  0  0  0  0  0  0  0
   -0.8150   -0.6680    0.4953 C   0  0  0  0  0  0  0  0  0  0  0  0
   -1.0641    0.2416   -0.5022 C   0  0  0  0  0  0  0  0  0  0  0  0
   -2.5186    0.3419   -0.6985 C   0  0  0  0  0  0  0  0  0  0  0  0
   -3.2896    1.1275   -1.5144 C   0  0  0  0  0  0  0  0  0  0  0  0
   -4.6821    1.0046   -1.4138 C   0  0  0  0  0  0  0  0  0  0  0  0
   -5.2959    0.1449   -0.5443 C   0  0  0  0  0  0  0  0  0  0  0  0
   -4.4940   -0.6211    0.2552 C   0  0  0  0  0  0  0  0  0  0  0  0
   -3.1084   -0.5482    0.2049 C   0  0  0  0  0  0  0  0  0  0  0  0
   -2.0640   -1.2692    0.9659 C   0  0  0  0  0  0  0  0  0  0  0  0
   -2.1609   -2.6130    0.6304 O   0  0  0  0  0  0  0  0  0  0  0  0
   -2.2960   -1.0340    2.4405 C   0  0  0  0  0  0  0  0  0  0  0  0
   -3.4754   -1.6266    2.8259 F   0  0  0  0  0  0  0  0  0  0  0  0
   -1.2942   -1.5312    3.2212 F   0  0  0  0  0  0  0  0  0  0  0  0
   -2.4516    0.3310    2.6643 F   0  0  0  0  0  0  0  0  0  0  0  0
   -0.0253    0.9355   -1.1107 C   0  0  0  0  0  0  0  0  0  0  0  0
    1.2931    0.7219   -0.7059 C   0  0  0  0  0  0  0  0  0  0  0  0
   -0.1255    1.7726   -2.2885 C   0  0  0  0  0  0  0  0  0  0  0  0
    0.5481    3.0495   -2.3122 N   0  0  0  0  0  0  0  0  0  0  0  0
   -0.7692    1.4291   -3.2744 O   0  0  0  0  0  0  0  0  0  0  0  0
    6.5911    0.0455   -0.7743 H   0  0  0  0  0  0  0  0  0  0  0  0
    7.2405   -0.1955    0.8580 H   0  0  0  0  0  0  0  0  0  0  0  0
    6.8200   -1.6094   -0.1676 H   0  0  0  0  0  0  0  0  0  0  0  0
    3.9966   -0.0621   -1.1194 H   0  0  0  0  0  0  0  0  0  0  0  0
    2.8021   -0.9231    2.8401 H   0  0  0  0  0  0  0  0  0  0  0  0
    0.7038   -1.5786    1.6614 H   0  0  0  0  0  0  0  0  0  0  0  0
   -2.9157    1.8679   -2.2075 H   0  0  0  0  0  0  0  0  0  0  0  0
   -5.2525    1.6499   -2.0853 H   0  0  0  0  0  0  0  0  0  0  0  0
   -6.3812    0.0826   -0.5008 H   0  0  0  0  0  0  0  0  0  0  0  0
   -4.9756   -1.2991    0.9348 H   0  0  0  0  0  0  0  0  0  0  0  0
   -3.1230   -2.8464    0.5461 H   0  0  0  0  0  0  0  0  0  0  0  0
    2.1345    1.2674   -1.1729 H   0  0  0  0  0  0  0  0  0  0  0  0
    0.7925    3.5023   -1.4090 H   0  0  0  0  0  0  0  0  0  0  0  0
    0.7921    3.5220   -3.1892 H   0  0  0  0  0  0  0  0  0  0  0  0
  1  2  1  0
  2  3  1  0
  3  4  2  0
  4  5  1  0
  5  6  2  0
  4  7  1  0
  7  8  2  0
  8  9  1  0
  9 10  2  0
 10 11  1  0
 11 12  2  0
 12 13  1  0
 13 14  2  0
 14 15  1  0
 15 16  2  0
 16 17  1  0
 17 18  1  0
 17 19  1  0
 19 20  1  0
 19 21  1  0
 19 22  1  0
 10 23  1  0
 23 24  2  0
 23 25  1  0
 25 26  1  0
 25 27  2  0
  6  2  1  0
 24  7  1  0
 17  9  1  0
 16 11  1  0
  1 28  1  0
  1 29  1  0
  1 30  1  0
  3 31  1  0
  5 32  1  0
  8 33  1  0
 12 34  1  0
 13 35  1  0
 14 36  1  0
 15 37  1  0
 18 38  1  0
 24 39  1  0
 26 40  1  0
 26 41  1  0
M  END
$$$$
[H]OC(=O)C([H])([H])[C@@]([H])(C(=O)N([H])[C@]([H])(C(=O)N([H])[H])C([H])([H])c1c([H])nc([H])n1[H])N([H])C(=O)[C@@]([H])(N([H])C(=O)[C@@]([H])(N([H])C(=O)[C@@]1([H])N(C(=O)[C@@]([H])(N([H])[H])C([H])([H])c2c([H])c([H])c(O[H])c([H])c2[H])C([H])([H])C([H])([H])C1([H])[H])C([H])([H])c1c([H])c([H])c([H])c([H])c1[H])[C@@]([H])(C([H])([H])[H])C([H])([H])C([H])([H])[H]
     RDKit          3D

108111  0  0  0  0  0  0  0  0999 V2000
   -1.2752   -3.2119    3.4303 C   0  0  0  0  0  0  0  0  0  0  0  0
   -1.4891   -1.7197    3.4792 C   0  0  0  0  0  0  0  0  0  0  0  0
   -2.5268   -1.1954    2.5608 C   0  0  2  0  0  0  0  0  0  0  0  0
   -3.8202   -1.8739    2.9239 C   0  0  0  0  0  0  0  0  0  0  0  0
   -2.2839   -1.3115    1.0872 C   0  0  2  0  0  0  0  0  0  0  0  0
   -1.0771   -0.6125    0.6848 N   0  0  0  0  0  0  0  0  0  0  0  0
    0.1485   -1.1715    0.3015 C   0  0  0  0  0  0  0  0  0  0  0  0
    0.2533   -2.4205    0.3011 O   0  0  0  0  0  0  0  0  0  0  0  0
    1.3343   -0.3975   -0.0998 C   0  0  2  0  0  0  0  0  0  0  0  0
    1.1270    0.2167   -1.4992 C   0  0  0  0  0  0  0  0  0  0  0  0
    0.9381   -0.8602   -2.4975 C   0  0  0  0  0  0  0  0  0  0  0  0
    2.0862   -1.3394   -3.1301 C   0  0  0  0  0  0  0  0  0  0  0  0
    2.0067   -2.3628   -4.0677 C   0  0  0  0  0  0  0  0  0  0  0  0
    0.7743   -2.9129   -4.3766 C   0  0  0  0  0  0  0  0  0  0  0  0
   -0.3596   -2.4442   -3.7562 C   0  0  0  0  0  0  0  0  0  0  0  0
   -0.2536   -1.4405   -2.8423 C   0  0  0  0  0  0  0  0  0  0  0  0
    2.5223   -1.2551   -0.1720 N   0  0  0  0  0  0  0  0  0  0  0  0
    3.8168   -0.8562    0.2179 C   0  0  0  0  0  0  0  0  0  0  0  0
    3.9380    0.3335    0.6477 O   0  0  0  0  0  0  0  0  0  0  0  0
    5.0011   -1.7449    0.1464 C   0  0  2  0  0  0  0  0  0  0  0  0
    5.0455   -2.7238    1.2743 C   0  0  0  0  0  0  0  0  0  0  0  0
    6.4859   -2.7458    1.7127 C   0  0  0  0  0  0  0  0  0  0  0  0
    6.9015   -1.2918    1.5071 C   0  0  0  0  0  0  0  0  0  0  0  0
    6.2406   -0.9789    0.2654 N   0  0  0  0  0  0  0  0  0  0  0  0
    6.7544   -0.0585   -0.6868 C   0  0  0  0  0  0  0  0  0  0  0  0
    6.0591    0.1009   -1.7486 O   0  0  0  0  0  0  0  0  0  0  0  0
    8.0007    0.7112   -0.5491 C   0  0  1  0  0  0  0  0  0  0  0  0
    8.1860    1.5248   -1.7340 N   0  0  0  0  0  0  0  0  0  0  0  0
    8.0003    1.6658    0.6323 C   0  0  0  0  0  0  0  0  0  0  0  0
    9.3175    2.3937    0.6409 C   0  0  0  0  0  0  0  0  0  0  0  0
   10.4052    1.9065    1.3092 C   0  0  0  0  0  0  0  0  0  0  0  0
   11.6215    2.5974    1.2866 C   0  0  0  0  0  0  0  0  0  0  0  0
   11.7542    3.7989    0.5822 C   0  0  0  0  0  0  0  0  0  0  0  0
   12.9648    4.4893    0.5576 O   0  0  0  0  0  0  0  0  0  0  0  0
   10.6369    4.2589   -0.0785 C   0  0  0  0  0  0  0  0  0  0  0  0
    9.4396    3.5782   -0.0556 C   0  0  0  0  0  0  0  0  0  0  0  0
   -3.4114   -0.6669    0.3941 C   0  0  0  0  0  0  0  0  0  0  0  0
   -3.1319    0.4832   -0.1417 O   0  0  0  0  0  0  0  0  0  0  0  0
   -4.7216   -1.0833    0.2177 N   0  0  0  0  0  0  0  0  0  0  0  0
   -5.7279   -0.3086   -0.4806 C   0  0  1  0  0  0  0  0  0  0  0  0
   -5.9946   -0.8382   -1.8884 C   0  0  0  0  0  0  0  0  0  0  0  0
   -4.7121   -0.7376   -2.6327 C   0  0  0  0  0  0  0  0  0  0  0  0
   -4.4367    0.4635   -3.2738 O   0  0  0  0  0  0  0  0  0  0  0  0
   -3.9139   -1.7166   -2.6693 O   0  0  0  0  0  0  0  0  0  0  0  0
   -6.9804   -0.1701    0.2660 C   0  0  0  0  0  0  0  0  0  0  0  0
   -7.1295   -0.7648    1.3533 O   0  0  0  0  0  0  0  0  0  0  0  0
   -8.0372    0.6321   -0.2184 N   0  0  0  0  0  0  0  0  0  0  0  0
   -9.2904    0.7858    0.4849 C   0  0  1  0  0  0  0  0  0  0  0  0
   -9.5044    2.2116    0.9490 C   0  0  0  0  0  0  0  0  0  0  0  0
   -9.5193    3.1854   -0.1560 C   0  0  0  0  0  0  0  0  0  0  0  0
  -10.5903    3.6259   -0.8921 C   0  0  0  0  0  0  0  0  0  0  0  0
  -10.1459    4.5243   -1.8095 N   0  0  0  0  0  0  0  0  0  0  0  0
   -8.8043    4.6445   -1.6482 C   0  0  0  0  0  0  0  0  0  0  0  0
   -8.4344    3.8204   -0.6335 N   0  0  0  0  0  0  0  0  0  0  0  0
  -10.3999    0.4162   -0.4141 C   0  0  0  0  0  0  0  0  0  0  0  0
  -11.7613    0.4454    0.0605 N   0  0  0  0  0  0  0  0  0  0  0  0
  -10.1649    0.0703   -1.6088 O   0  0  0  0  0  0  0  0  0  0  0  0
   -0.2334   -3.4198    3.7401 H   0  0  0  0  0  0  0  0  0  0  0  0
   -1.4208   -3.6285    2.4163 H   0  0  0  0  0  0  0  0  0  0  0  0
   -1.9329   -3.7872    4.1001 H   0  0  0  0  0  0  0  0  0  0  0  0
   -0.5237   -1.1452    3.4377 H   0  0  0  0  0  0  0  0  0  0  0  0
   -1.8626   -1.5100    4.5233 H   0  0  0  0  0  0  0  0  0  0  0  0
   -2.6473   -0.1116    2.7824 H   0  0  0  0  0  0  0  0  0  0  0  0
   -3.8512   -2.1082    4.0414 H   0  0  0  0  0  0  0  0  0  0  0  0
   -3.9047   -2.8888    2.4754 H   0  0  0  0  0  0  0  0  0  0  0  0
   -4.6959   -1.2279    2.7873 H   0  0  0  0  0  0  0  0  0  0  0  0
   -2.2017   -2.3531    0.7814 H   0  0  0  0  0  0  0  0  0  0  0  0
   -1.1343    0.4347    0.6781 H   0  0  0  0  0  0  0  0  0  0  0  0
    1.5568    0.4361    0.5551 H   0  0  0  0  0  0  0  0  0  0  0  0
    0.2596    0.8733   -1.4504 H   0  0  0  0  0  0  0  0  0  0  0  0
    2.0195    0.8173   -1.7436 H   0  0  0  0  0  0  0  0  0  0  0  0
    3.0433   -0.9098   -2.8915 H   0  0  0  0  0  0  0  0  0  0  0  0
    2.8715   -2.7512   -4.5701 H   0  0  0  0  0  0  0  0  0  0  0  0
    0.6523   -3.7120   -5.1019 H   0  0  0  0  0  0  0  0  0  0  0  0
   -1.3493   -2.8455   -3.9611 H   0  0  0  0  0  0  0  0  0  0  0  0
   -1.1305   -1.0405   -2.3276 H   0  0  0  0  0  0  0  0  0  0  0  0
    2.3866   -2.2143   -0.5318 H   0  0  0  0  0  0  0  0  0  0  0  0
    5.0069   -2.2239   -0.8484 H   0  0  0  0  0  0  0  0  0  0  0  0
    4.4473   -2.2827    2.1140 H   0  0  0  0  0  0  0  0  0  0  0  0
    4.6585   -3.7260    1.0070 H   0  0  0  0  0  0  0  0  0  0  0  0
    6.5305   -2.9703    2.8083 H   0  0  0  0  0  0  0  0  0  0  0  0
    7.0624   -3.4510    1.0897 H   0  0  0  0  0  0  0  0  0  0  0  0
    6.5839   -0.6577    2.3461 H   0  0  0  0  0  0  0  0  0  0  0  0
    7.9943   -1.3024    1.3254 H   0  0  0  0  0  0  0  0  0  0  0  0
    8.8341   -0.0253   -0.4235 H   0  0  0  0  0  0  0  0  0  0  0  0
    7.6149    1.1854   -2.5394 H   0  0  0  0  0  0  0  0  0  0  0  0
    9.1818    1.6815   -1.9604 H   0  0  0  0  0  0  0  0  0  0  0  0
    7.2046    2.4185    0.5453 H   0  0  0  0  0  0  0  0  0  0  0  0
    7.9543    1.1641    1.6076 H   0  0  0  0  0  0  0  0  0  0  0  0
   10.3722    0.9667    1.8817 H   0  0  0  0  0  0  0  0  0  0  0  0
   12.4988    2.2271    1.8113 H   0  0  0  0  0  0  0  0  0  0  0  0
   13.5988    4.2345   -0.2064 H   0  0  0  0  0  0  0  0  0  0  0  0
   10.7319    5.1917   -0.6272 H   0  0  0  0  0  0  0  0  0  0  0  0
    8.5469    3.9444   -0.5793 H   0  0  0  0  0  0  0  0  0  0  0  0
   -5.0274   -2.0090    0.5838 H   0  0  0  0  0  0  0  0  0  0  0  0
   -5.2880    0.7244   -0.6086 H   0  0  0  0  0  0  0  0  0  0  0  0
   -6.7480   -0.1953   -2.3991 H   0  0  0  0  0  0  0  0  0  0  0  0
   -6.3307   -1.8727   -1.8900 H   0  0  0  0  0  0  0  0  0  0  0  0
   -5.0456    1.2394   -3.1588 H   0  0  0  0  0  0  0  0  0  0  0  0
   -7.9346    1.1519   -1.1247 H   0  0  0  0  0  0  0  0  0  0  0  0
   -9.3272    0.1123    1.3813 H   0  0  0  0  0  0  0  0  0  0  0  0
   -8.7650    2.4882    1.7565 H   0  0  0  0  0  0  0  0  0  0  0  0
  -10.5013    2.1861    1.4888 H   0  0  0  0  0  0  0  0  0  0  0  0
  -11.6313    3.3431   -0.7990 H   0  0  0  0  0  0  0  0  0  0  0  0
   -8.1167    5.2656   -2.1995 H   0  0  0  0  0  0  0  0  0  0  0  0
   -7.4403    3.7241   -0.3034 H   0  0  0  0  0  0  0  0  0  0  0  0
  -12.4251    1.1273   -0.3551 H   0  0  0  0  0  0  0  0  0  0  0  0
  -12.0047   -0.2365    0.8086 H   0  0  0  0  0  0  0  0  0  0  0  0
  1  2  1  0
  2  3  1  0
  3  4  1  0
  3  5  1  0
  5  6  1  0
  6  7  1  0
  7  8  2  0
  7  9  1  0
  9 10  1  0
 10 11  1  0
 11 12  2  0
 12 13  1  0
 13 14  2  0
 14 15  1  0
 15 16  2  0
  9 17  1  0
 17 18  1  0
 18 19  2  0
 18 20  1  0
 20 21  1  0
 21 22  1  0
 22 23  1  0
 23 24  1  0
 24 25  1  0
 25 26  2  0
 25 27  1  0
 27 28  1  0
 27 29  1  0
 29 30  1  0
 30 31  2  0
 31 32  1  0
 32 33  2  0
 33 34  1  0
 33 35  1  0
 35 36  2  0
  5 37  1  0
 37 38  2  0
 37 39  1  0
 39 40  1  0
 40 41  1  0
 41 42  1  0
 42 43  1  0
 42 44  2  0
 40 45  1  0
 45 46  2  0
 45 47  1  0
 47 48  1  0
 48 49  1  0
 49 50  1  0
 50 51  2  0
 51 52  1  0
 52 53  2  0
 53 54  1  0
 48 55  1  0
 55 56  1  0
 55 57  2  0
 16 11  1  0
 24 20  1  0
 36 30  1  0
 54 50  1  0
  1 58  1  0
  1 59  1  0
  1 60  1  0
  2 61  1  0
  2 62  1  0
  3 63  1  1
  4 64  1  0
  4 65  1  0
  4 66  1  0
  5 67  1  6
  6 68  1  0
  9 69  1  1
 10 70  1  0
 10 71  1  0
 12 72  1  0
 13 73  1  0
 14 74  1  0
 15 75  1  0
 16 76  1  0
 17 77  1  0
 20 78  1  6
 21 79  1  0
 21 80  1  0
 22 81  1  0
 22 82  1  0
 23 83  1  0
 23 84  1  0
 27 85  1  1
 28 86  1  0
 28 87  1  0
 29 88  1  0
 29 89  1  0
 31 90  1  0
 32 91  1  0
 34 92  1  0
 35 93  1  0
 36 94  1  0
 39 95  1  0
 40 96  1  6
 41 97  1  0
 41 98  1  0
 43 99  1  0
 47100  1  0
 48101  1  1
 49102  1  0
 49103  1  0
 51104  1  0
 53105  1  0
 54106  1  0
 56107  1  0
 56108  1  0
M  END
$$$$
[H]OC1([H])C([H])([H])C([H])([H])C2([H])C3([H])C([H])([H])C([H])([H])C4([H])C([H])([H])[C@]([H])(O[H])C([H])([H])C([H])([H])[C@]4(C([H])([H])[H])C3([H])C([H])([H])C([H])([H])[C@]12C([H])([H])[H]
     RDKit          3D

 53 56  0  0  0  0  0  0  0  0999 V2000
    3.1093   -1.0024   -1.0900 C   0  0  0  0  0  0  0  0  0  0  0  0
    2.7568   -0.1336    0.0702 C   0  0  2  0  0  0  0  0  0  0  0  0
    2.1474   -0.9546    1.1532 C   0  0  0  0  0  0  0  0  0  0  0  0
    0.6270   -0.7838    1.2393 C   0  0  0  0  0  0  0  0  0  0  0  0
    0.0315   -0.7188   -0.1787 C   0  0  0  0  0  0  0  0  0  0  0  0
    0.5164    0.4861   -0.9130 C   0  0  0  0  0  0  0  0  0  0  0  0
   -0.4041    1.6471   -0.9819 C   0  0  0  0  0  0  0  0  0  0  0  0
   -1.8333    1.3695   -0.6551 C   0  0  0  0  0  0  0  0  0  0  0  0
   -2.1199   -0.0271   -1.1399 C   0  0  0  0  0  0  0  0  0  0  0  0
   -3.5928   -0.2097   -1.2145 C   0  0  0  0  0  0  0  0  0  0  0  0
   -4.2429   -0.1348    0.1289 C   0  0  2  0  0  0  0  0  0  0  0  0
   -4.3942    1.1638    0.6054 O   0  0  0  0  0  0  0  0  0  0  0  0
   -3.5642   -1.0573    1.0720 C   0  0  0  0  0  0  0  0  0  0  0  0
   -2.0836   -0.9370    1.1661 C   0  0  0  0  0  0  0  0  0  0  0  0
   -1.4223   -0.9773   -0.2045 C   0  0  2  0  0  0  0  0  0  0  0  0
   -1.7416   -2.3892   -0.7302 C   0  0  0  0  0  0  0  0  0  0  0  0
    1.7608    0.9440   -0.2411 C   0  0  0  0  0  0  0  0  0  0  0  0
    2.5693    1.9576   -0.9497 C   0  0  0  0  0  0  0  0  0  0  0  0
    3.7190    2.1027    0.0412 C   0  0  0  0  0  0  0  0  0  0  0  0
    3.9491    0.6848    0.5217 C   0  0  0  0  0  0  0  0  0  0  0  0
    5.1411    0.2596   -0.0623 O   0  0  0  0  0  0  0  0  0  0  0  0
    2.5813   -0.7701   -2.0235 H   0  0  0  0  0  0  0  0  0  0  0  0
    2.8765   -2.0875   -0.8760 H   0  0  0  0  0  0  0  0  0  0  0  0
    4.1983   -1.0054   -1.3392 H   0  0  0  0  0  0  0  0  0  0  0  0
    2.5336   -0.5668    2.1383 H   0  0  0  0  0  0  0  0  0  0  0  0
    2.4468   -1.9990    1.0658 H   0  0  0  0  0  0  0  0  0  0  0  0
    0.2805   -1.7735    1.6485 H   0  0  0  0  0  0  0  0  0  0  0  0
    0.3323    0.0692    1.8504 H   0  0  0  0  0  0  0  0  0  0  0  0
    0.5352   -1.6010   -0.6847 H   0  0  0  0  0  0  0  0  0  0  0  0
    0.7994    0.2210   -1.9754 H   0  0  0  0  0  0  0  0  0  0  0  0
   -0.3927    2.1277   -2.0064 H   0  0  0  0  0  0  0  0  0  0  0  0
   -0.0870    2.4995   -0.3078 H   0  0  0  0  0  0  0  0  0  0  0  0
   -1.9586    1.4906    0.4398 H   0  0  0  0  0  0  0  0  0  0  0  0
   -2.5021    2.0510   -1.2266 H   0  0  0  0  0  0  0  0  0  0  0  0
   -1.6728   -0.1518   -2.1371 H   0  0  0  0  0  0  0  0  0  0  0  0
   -3.9935    0.6641   -1.8101 H   0  0  0  0  0  0  0  0  0  0  0  0
   -3.9221   -1.1038   -1.7855 H   0  0  0  0  0  0  0  0  0  0  0  0
   -5.2956   -0.5232   -0.0058 H   0  0  0  0  0  0  0  0  0  0  0  0
   -4.6735    1.7327   -0.1323 H   0  0  0  0  0  0  0  0  0  0  0  0
   -3.8853   -2.1058    0.8070 H   0  0  0  0  0  0  0  0  0  0  0  0
   -3.9662   -0.9182    2.1167 H   0  0  0  0  0  0  0  0  0  0  0  0
   -1.7459   -1.8387    1.7603 H   0  0  0  0  0  0  0  0  0  0  0  0
   -1.7959   -0.0569    1.7548 H   0  0  0  0  0  0  0  0  0  0  0  0
   -1.3833   -3.1485    0.0243 H   0  0  0  0  0  0  0  0  0  0  0  0
   -1.1448   -2.5348   -1.6367 H   0  0  0  0  0  0  0  0  0  0  0  0
   -2.8078   -2.5421   -0.8677 H   0  0  0  0  0  0  0  0  0  0  0  0
    1.4561    1.3855    0.7538 H   0  0  0  0  0  0  0  0  0  0  0  0
    2.0742    2.9620   -1.0024 H   0  0  0  0  0  0  0  0  0  0  0  0
    2.9188    1.6507   -1.9389 H   0  0  0  0  0  0  0  0  0  0  0  0
    4.6141    2.5381   -0.4361 H   0  0  0  0  0  0  0  0  0  0  0  0
    3.3316    2.7026    0.8783 H   0  0  0  0  0  0  0  0  0  0  0  0
    4.0905    0.6361    1.6185 H   0  0  0  0  0  0  0  0  0  0  0  0
    5.2290    0.7072   -0.9402 H   0  0  0  0  0  0  0  0  0  0  0  0
  2  1  1  6
  2  3  1  0
  3  4  1  0
  4  5  1  0
  5  6  1  0
  6  7  1  0
  7  8  1  0
  8  9  1  0
  9 10  1  0
 10 11  1  0
 11 12  1  0
 11 13  1  0
 13 14  1  0
 14 15  1  0
 15 16  1  6
  6 17  1  0
 17 18  1  0
 18 19  1  0
 19 20  1  0
 20 21  1  0
 17  2  1  0
 20  2  1  0
 15  5  1  0
 15  9  1  0
  1 22  1  0
  1 23  1  0
  1 24  1  0
  3 25  1  0
  3 26  1  0
  4 27  1  0
  4 28  1  0
  5 29  1  0
  6 30  1  0
  7 31  1  0
  7 32  1  0
  8 33  1  0
  8 34  1  0
  9 35  1  0
 10 36  1  0
 10 37  1  0
 11 38  1  6
 12 39  1  0
 13 40  1  0
 13 41  1  0
 14 42  1  0
 14 43  1  0
 16 44  1  0
 16 45  1  0
 16 46  1  0
 17 47  1  0
 18 48  1  0
 18 49  1  0
 19 50  1  0
 19 51  1  0
 20 52  1  0
 21 53  1  0
M  END
$$$$
[H]OC(=O)[C@@]([H])(N([H])C(=O)[C@@]1([H])N(C(=O)[C@@]([H])(N([H])[H])C([H])([H])c2c([H])c([H])c(O[H])c([H])c2[H])C([H])([H])C([H])([H])C1([H])[H])C([H])([H])c1c([H])c([H])c(O[H])c([H])c1[H]
     RDKit          3D

 59 61  0  0  0  0  0  0  0  0999 V2000
   -3.7915    1.2910   -0.7412 N   0  0  0  0  0  0  0  0  0  0  0  0
   -3.2850    0.1017   -0.1577 C   0  0  1  0  0  0  0  0  0  0  0  0
   -4.1280   -1.1267   -0.5548 C   0  0  0  0  0  0  0  0  0  0  0  0
   -5.5338   -0.9568   -0.1029 C   0  0  0  0  0  0  0  0  0  0  0  0
   -5.9706   -1.3772    1.1270 C   0  0  0  0  0  0  0  0  0  0  0  0
   -7.2849   -1.2090    1.5279 C   0  0  0  0  0  0  0  0  0  0  0  0
   -8.2036   -0.6086    0.6963 C   0  0  0  0  0  0  0  0  0  0  0  0
   -9.5441   -0.4262    1.0801 O   0  0  0  0  0  0  0  0  0  0  0  0
   -7.7665   -0.1852   -0.5409 C   0  0  0  0  0  0  0  0  0  0  0  0
   -6.4601   -0.3489   -0.9473 C   0  0  0  0  0  0  0  0  0  0  0  0
   -1.8618   -0.1751   -0.2893 C   0  0  0  0  0  0  0  0  0  0  0  0
   -1.4817   -1.2759    0.2654 O   0  0  0  0  0  0  0  0  0  0  0  0
   -0.8651    0.5952   -0.9351 N   0  0  0  0  0  0  0  0  0  0  0  0
   -0.8638    1.8292   -1.6448 C   0  0  0  0  0  0  0  0  0  0  0  0
   -0.1626    1.4291   -2.9393 C   0  0  0  0  0  0  0  0  0  0  0  0
    0.9516    0.5648   -2.3760 C   0  0  0  0  0  0  0  0  0  0  0  0
    0.5524    0.1800   -0.9819 C   0  0  1  0  0  0  0  0  0  0  0  0
    1.2898    0.8614    0.0912 C   0  0  0  0  0  0  0  0  0  0  0  0
    0.6756    1.5751    0.9114 O   0  0  0  0  0  0  0  0  0  0  0  0
    2.6953    0.7329    0.2268 N   0  0  0  0  0  0  0  0  0  0  0  0
    3.4630    1.3820    1.2632 C   0  0  1  0  0  0  0  0  0  0  0  0
    4.0803    0.3902    2.2179 C   0  0  0  0  0  0  0  0  0  0  0  0
    4.9953   -0.5673    1.5891 C   0  0  0  0  0  0  0  0  0  0  0  0
    6.3353   -0.2695    1.5005 C   0  0  0  0  0  0  0  0  0  0  0  0
    7.2360   -1.1594    0.9046 C   0  0  0  0  0  0  0  0  0  0  0  0
    6.8126   -2.3644    0.3861 C   0  0  0  0  0  0  0  0  0  0  0  0
    7.7205   -3.2381   -0.2032 O   0  0  0  0  0  0  0  0  0  0  0  0
    5.4677   -2.6514    0.4810 C   0  0  0  0  0  0  0  0  0  0  0  0
    4.5768   -1.7826    1.0648 C   0  0  0  0  0  0  0  0  0  0  0  0
    4.4294    2.3622    0.7688 C   0  0  0  0  0  0  0  0  0  0  0  0
    5.2033    3.0565    1.6684 O   0  0  0  0  0  0  0  0  0  0  0  0
    4.6058    2.6218   -0.4557 O   0  0  0  0  0  0  0  0  0  0  0  0
   -3.6129    2.1749   -0.2687 H   0  0  0  0  0  0  0  0  0  0  0  0
   -3.9346    1.2918   -1.7548 H   0  0  0  0  0  0  0  0  0  0  0  0
   -3.5219    0.2042    0.9501 H   0  0  0  0  0  0  0  0  0  0  0  0
   -4.0472   -1.2786   -1.6508 H   0  0  0  0  0  0  0  0  0  0  0  0
   -3.7010   -1.9715    0.0152 H   0  0  0  0  0  0  0  0  0  0  0  0
   -5.2755   -1.8512    1.8019 H   0  0  0  0  0  0  0  0  0  0  0  0
   -7.6434   -1.5394    2.5037 H   0  0  0  0  0  0  0  0  0  0  0  0
   -9.7651    0.4356    1.5520 H   0  0  0  0  0  0  0  0  0  0  0  0
   -8.4685    0.2866   -1.2064 H   0  0  0  0  0  0  0  0  0  0  0  0
   -6.1263   -0.0144   -1.9178 H   0  0  0  0  0  0  0  0  0  0  0  0
   -1.7876    2.3472   -1.8120 H   0  0  0  0  0  0  0  0  0  0  0  0
   -0.1361    2.5343   -1.1462 H   0  0  0  0  0  0  0  0  0  0  0  0
   -0.8860    0.8491   -3.5252 H   0  0  0  0  0  0  0  0  0  0  0  0
    0.2212    2.2911   -3.4907 H   0  0  0  0  0  0  0  0  0  0  0  0
    0.9880   -0.3733   -2.9920 H   0  0  0  0  0  0  0  0  0  0  0  0
    1.9312    1.0810   -2.4188 H   0  0  0  0  0  0  0  0  0  0  0  0
    0.5951   -0.9389   -0.8449 H   0  0  0  0  0  0  0  0  0  0  0  0
    3.2175    0.1355   -0.4582 H   0  0  0  0  0  0  0  0  0  0  0  0
    2.7103    1.9621    1.8753 H   0  0  0  0  0  0  0  0  0  0  0  0
    3.2400   -0.1001    2.7612 H   0  0  0  0  0  0  0  0  0  0  0  0
    4.6536    0.9725    2.9691 H   0  0  0  0  0  0  0  0  0  0  0  0
    6.7791    0.6558    1.8802 H   0  0  0  0  0  0  0  0  0  0  0  0
    8.2947   -0.9210    0.8359 H   0  0  0  0  0  0  0  0  0  0  0  0
    7.8580   -3.1032   -1.2146 H   0  0  0  0  0  0  0  0  0  0  0  0
    5.1251   -3.5932    0.0779 H   0  0  0  0  0  0  0  0  0  0  0  0
    3.5482   -2.0385    1.1196 H   0  0  0  0  0  0  0  0  0  0  0  0
    5.8566    3.7788    1.4584 H   0  0  0  0  0  0  0  0  0  0  0  0
  1  2  1  0
  2  3  1  0
  3  4  1  0
  4  5  2  0
  5  6  1  0
  6  7  2  0
  7  8  1  0
  7  9  1  0
  9 10  2  0
  2 11  1  0
 11 12  2  0
 11 13  1  0
 13 14  1  0
 14 15  1  0
 15 16  1  0
 16 17  1  0
 17 18  1  0
 18 19  2  0
 18 20  1  0
 20 21  1  0
 21 22  1  0
 22 23  1  0
 23 24  2  0
 24 25  1  0
 25 26  2  0
 26 27  1  0
 26 28  1  0
 28 29  2  0
 21 30  1  0
 30 31  1  0
 30 32  2  0
 10  4  1  0
 17 13  1  0
 29 23  1  0
  1 33  1  0
  1 34  1  0
  2 35  1  1
  3 36  1  0
  3 37  1  0
  5 38  1  0
  6 39  1  0
  8 40  1  0
  9 41  1  0
 10 42  1  0
 14 43  1  0
 14 44  1  0
 15 45  1  0
 15 46  1  0
 16 47  1  0
 16 48  1  0
 17 49  1  6
 20 50  1  0
 21 51  1  1
 22 52  1  0
 22 53  1  0
 24 54  1  0
 25 55  1  0
 27 56  1  0
 28 57  1  0
 29 58  1  0
 31 59  1  0
M  END
$$$$
[H]OC(=O)[C@@]([H])(N([H])C(=O)[C@@]([H])(S[H])C([H])([H])C([H])(C([H])([H])[H])C([H])([H])[H])C([H])([H])c1c([H])c([H])c(-c2c([H])c([H])c([H])c([H])c2[H])c([H])c1[H]
     RDKit          3D

 51 52  0  0  0  0  0  0  0  0999 V2000
    6.0048   -0.5063   -0.9983 C   0  0  0  0  0  0  0  0  0  0  0  0
    5.7845   -0.3751    0.4829 C   0  0  0  0  0  0  0  0  0  0  0  0
    4.8718   -1.4431    0.9706 C   0  0  0  0  0  0  0  0  0  0  0  0
    5.5336    0.9993    0.9626 C   0  0  0  0  0  0  0  0  0  0  0  0
    4.3870    1.7544    0.4321 C   0  0  2  0  0  0  0  0  0  0  0  0
    4.3037    3.4284    1.1950 S   0  0  0  0  0  0  0  0  0  0  0  0
    3.0428    1.1776    0.5940 C   0  0  0  0  0  0  0  0  0  0  0  0
    2.4057    1.3958    1.6908 O   0  0  0  0  0  0  0  0  0  0  0  0
    2.3656    0.3826   -0.3751 N   0  0  0  0  0  0  0  0  0  0  0  0
    1.0105   -0.1337   -0.0935 C   0  0  1  0  0  0  0  0  0  0  0  0
    0.1043    0.8081   -0.8719 C   0  0  0  0  0  0  0  0  0  0  0  0
   -1.3221    0.5228   -0.7636 C   0  0  0  0  0  0  0  0  0  0  0  0
   -2.0146    1.0905    0.2968 C   0  0  0  0  0  0  0  0  0  0  0  0
   -3.3687    0.8526    0.4116 C   0  0  0  0  0  0  0  0  0  0  0  0
   -4.0581    0.0697   -0.4917 C   0  0  0  0  0  0  0  0  0  0  0  0
   -3.3772   -0.4940   -1.5423 C   0  0  0  0  0  0  0  0  0  0  0  0
   -2.0165   -0.2575   -1.6613 C   0  0  0  0  0  0  0  0  0  0  0  0
   -5.4894   -0.1692   -0.3524 C   0  0  0  0  0  0  0  0  0  0  0  0
   -6.3366    0.7792    0.1960 C   0  0  0  0  0  0  0  0  0  0  0  0
   -7.6915    0.5603    0.3308 C   0  0  0  0  0  0  0  0  0  0  0  0
   -8.2570   -0.6248   -0.0807 C   0  0  0  0  0  0  0  0  0  0  0  0
   -7.4238   -1.5788   -0.6291 C   0  0  0  0  0  0  0  0  0  0  0  0
   -6.0719   -1.3614   -0.7640 C   0  0  0  0  0  0  0  0  0  0  0  0
    0.9124   -1.5090   -0.6014 C   0  0  0  0  0  0  0  0  0  0  0  0
   -0.1963   -2.3313   -0.4166 O   0  0  0  0  0  0  0  0  0  0  0  0
    1.8753   -2.0281   -1.2556 O   0  0  0  0  0  0  0  0  0  0  0  0
    5.0564   -0.7004   -1.5338 H   0  0  0  0  0  0  0  0  0  0  0  0
    6.5632    0.3610   -1.4023 H   0  0  0  0  0  0  0  0  0  0  0  0
    6.6086   -1.4475   -1.1566 H   0  0  0  0  0  0  0  0  0  0  0  0
    6.8187   -0.6484    0.9256 H   0  0  0  0  0  0  0  0  0  0  0  0
    5.4174   -2.3035    1.4331 H   0  0  0  0  0  0  0  0  0  0  0  0
    4.3583   -1.8793    0.0945 H   0  0  0  0  0  0  0  0  0  0  0  0
    4.1086   -1.0314    1.6479 H   0  0  0  0  0  0  0  0  0  0  0  0
    5.4593    0.9560    2.0838 H   0  0  0  0  0  0  0  0  0  0  0  0
    6.4641    1.6054    0.7376 H   0  0  0  0  0  0  0  0  0  0  0  0
    4.4821    1.9750   -0.6664 H   0  0  0  0  0  0  0  0  0  0  0  0
    2.9938    3.9490    1.0777 H   0  0  0  0  0  0  0  0  0  0  0  0
    2.8543    0.1874   -1.2673 H   0  0  0  0  0  0  0  0  0  0  0  0
    0.7836    0.0064    0.9710 H   0  0  0  0  0  0  0  0  0  0  0  0
    0.3358    1.8352   -0.5313 H   0  0  0  0  0  0  0  0  0  0  0  0
    0.4018    0.6840   -1.9466 H   0  0  0  0  0  0  0  0  0  0  0  0
   -1.5187    1.7180    1.0396 H   0  0  0  0  0  0  0  0  0  0  0  0
   -3.9493    1.2834    1.2339 H   0  0  0  0  0  0  0  0  0  0  0  0
   -3.8509   -1.1205   -2.2919 H   0  0  0  0  0  0  0  0  0  0  0  0
   -1.4255   -0.6802   -2.4771 H   0  0  0  0  0  0  0  0  0  0  0  0
   -5.8604    1.7050    0.5118 H   0  0  0  0  0  0  0  0  0  0  0  0
   -8.3155    1.3105    0.7570 H   0  0  0  0  0  0  0  0  0  0  0  0
   -9.3234   -0.8287    0.0119 H   0  0  0  0  0  0  0  0  0  0  0  0
   -7.8758   -2.5135   -0.9530 H   0  0  0  0  0  0  0  0  0  0  0  0
   -5.4177   -2.1045   -1.1921 H   0  0  0  0  0  0  0  0  0  0  0  0
   -0.1473   -3.3277   -0.4115 H   0  0  0  0  0  0  0  0  0  0  0  0
  1  2  1  0
  2  3  1  0
  2  4  1  0
  4  5  1  0
  5  6  1  0
  5  7  1  0
  7  8  2  0
  7  9  1  0
  9 10  1  0
 10 11  1  0
 11 12  1  0
 12 13  2  0
 13 14  1  0
 14 15  2  0
 15 16  1  0
 16 17  2  0
 15 18  1  0
 18 19  2  0
 19 20  1  0
 20 21  2  0
 21 22  1  0
 22 23  2  0
 10 24  1  0
 24 25  1  0
 24 26  2  0
 17 12  1  0
 23 18  1  0
  1 27  1  0
  1 28  1  0
  1 29  1  0
  2 30  1  0
  3 31  1  0
  3 32  1  0
  3 33  1  0
  4 34  1  0
  4 35  1  0
  5 36  1  6
  6 37  1  0
  9 38  1  0
 10 39  1  1
 11 40  1  0
 11 41  1  0
 13 42  1  0
 14 43  1  0
 16 44  1  0
 17 45  1  0
 19 46  1  0
 20 47  1  0
 21 48  1  0
 22 49  1  0
 23 50  1  0
 25 51  1  0
M  END
$$$$
[H]O[C@]1([H])[C@@]([H])(C([H])([H])OP(=O)(O[H])OP(=O)(O[H])OP(=O)(O[H])O[H])OC([H])(n2c([H])nc3c(N([H])[H])nc([H])nc32)[C@]1([H])O[H]
     RDKit          3D

 47 49  0  0  0  0  0  0  0  0999 V2000
   -7.8226   -0.0029   -0.2489 N   0  0  0  0  0  0  0  0  0  0  0  0
   -6.4743    0.1532    0.1724 C   0  0  0  0  0  0  0  0  0  0  0  0
   -6.1391    0.3925    1.4522 N   0  0  0  0  0  0  0  0  0  0  0  0
   -4.8595    0.5385    1.8397 C   0  0  0  0  0  0  0  0  0  0  0  0
   -3.8315    0.4511    0.9509 N   0  0  0  0  0  0  0  0  0  0  0  0
   -4.1161    0.2128   -0.3412 C   0  0  0  0  0  0  0  0  0  0  0  0
   -3.3493    0.0762   -1.4223 N   0  0  0  0  0  0  0  0  0  0  0  0
   -4.1568   -0.1518   -2.4630 C   0  0  0  0  0  0  0  0  0  0  0  0
   -5.4259   -0.1613   -2.0542 N   0  0  0  0  0  0  0  0  0  0  0  0
   -5.4182    0.0640   -0.7369 C   0  0  0  0  0  0  0  0  0  0  0  0
   -1.8986    0.1488   -1.5283 C   0  0  0  0  0  0  0  0  0  0  0  0
   -1.2917    0.6581   -0.4153 O   0  0  0  0  0  0  0  0  0  0  0  0
   -0.4301   -0.2727    0.1074 C   0  0  2  0  0  0  0  0  0  0  0  0
    0.6570    0.2979    0.9504 C   0  0  0  0  0  0  0  0  0  0  0  0
    1.4784    1.1905    0.2735 O   0  0  0  0  0  0  0  0  0  0  0  0
    2.6763    1.7992    1.2594 P   0  0  0  0  0  0  0  0  0  0  0  0
    3.8978    2.5215    0.3256 O   0  0  0  0  0  0  0  0  0  0  0  0
    2.0811    2.9183    2.1157 O   0  0  0  0  0  0  0  0  0  0  0  0
    3.3382    0.6715    2.3020 O   0  0  0  0  0  0  0  0  0  0  0  0
    4.5551   -0.2453    1.6227 P   0  0  0  0  0  0  0  0  0  0  0  0
    5.6233   -0.7012    2.8674 O   0  0  0  0  0  0  0  0  0  0  0  0
    4.0590   -1.5123    0.9853 O   0  0  0  0  0  0  0  0  0  0  0  0
    5.4776    0.6824    0.5269 O   0  0  0  0  0  0  0  0  0  0  0  0
    6.9105   -0.1132    0.1295 P   0  0  0  0  0  0  0  0  0  0  0  0
    7.2814    0.2147   -1.4965 O   0  0  0  0  0  0  0  0  0  0  0  0
    8.2192    0.4652    1.0483 O   0  0  0  0  0  0  0  0  0  0  0  0
    6.7669   -1.6133    0.2547 O   0  0  0  0  0  0  0  0  0  0  0  0
    0.0601   -1.0259   -1.0948 C   0  0  1  0  0  0  0  0  0  0  0  0
    0.6422   -2.2336   -0.8097 O   0  0  0  0  0  0  0  0  0  0  0  0
   -1.2844   -1.2028   -1.8193 C   0  0  1  0  0  0  0  0  0  0  0  0
   -1.9421   -2.2262   -1.1737 O   0  0  0  0  0  0  0  0  0  0  0  0
   -8.3903    0.8408   -0.5445 H   0  0  0  0  0  0  0  0  0  0  0  0
   -8.3093   -0.9237   -0.2885 H   0  0  0  0  0  0  0  0  0  0  0  0
   -4.6751    0.7288    2.8872 H   0  0  0  0  0  0  0  0  0  0  0  0
   -3.8601   -0.3103   -3.5006 H   0  0  0  0  0  0  0  0  0  0  0  0
   -1.6886    0.7863   -2.4364 H   0  0  0  0  0  0  0  0  0  0  0  0
   -1.0174   -0.9710    0.7304 H   0  0  0  0  0  0  0  0  0  0  0  0
    0.1947    0.7390    1.8555 H   0  0  0  0  0  0  0  0  0  0  0  0
    1.2949   -0.5390    1.3055 H   0  0  0  0  0  0  0  0  0  0  0  0
    3.5154    2.7463   -0.5772 H   0  0  0  0  0  0  0  0  0  0  0  0
    5.6493   -0.0240    3.5871 H   0  0  0  0  0  0  0  0  0  0  0  0
    6.4390    0.2548   -2.0142 H   0  0  0  0  0  0  0  0  0  0  0  0
    8.2348    0.0887    1.9483 H   0  0  0  0  0  0  0  0  0  0  0  0
    0.6617   -0.3763   -1.7647 H   0  0  0  0  0  0  0  0  0  0  0  0
    0.3518   -2.9713   -1.4080 H   0  0  0  0  0  0  0  0  0  0  0  0
   -1.1371   -1.3838   -2.8987 H   0  0  0  0  0  0  0  0  0  0  0  0
   -2.5475   -1.9536   -0.4612 H   0  0  0  0  0  0  0  0  0  0  0  0
  1  2  1  0
  2  3  2  0
  3  4  1  0
  4  5  2  0
  5  6  1  0
  6  7  1  0
  7  8  1  0
  8  9  2  0
  9 10  1  0
  7 11  1  0
 11 12  1  0
 12 13  1  0
 13 14  1  0
 14 15  1  0
 15 16  1  0
 16 17  1  0
 16 18  2  0
 16 19  1  0
 19 20  1  0
 20 21  1  0
 20 22  2  0
 20 23  1  0
 23 24  1  0
 24 25  1  0
 24 26  1  0
 24 27  2  0
 13 28  1  0
 28 29  1  0
 28 30  1  0
 30 31  1  0
 10  2  1  0
 30 11  1  0
 10  6  2  0
  1 32  1  0
  1 33  1  0
  4 34  1  0
  8 35  1  0
 11 36  1  0
 13 37  1  1
 14 38  1  0
 14 39  1  0
 17 40  1  0
 21 41  1  0
 25 42  1  0
 26 43  1  0
 28 44  1  6
 29 45  1  0
 30 46  1  6
 31 47  1  0
M  END
$$$$
[H]OC(=O)c1c([H])c([H])c(-c2c([H])c([H])c(N3C(=O)N(c4nc([H])n([H])c(=O)c4[H])C4(C3=O)C([H])([H])C([H])([H])N(C([H])([H])c3nc([H])c([H])c([H])c3C([H])([H])[H])C([H])([H])C4([H])[H])c([H])c2[H])c([H])c1[H]
     RDKit          3D

 70 75  0  0  0  0  0  0  0  0999 V2000
   -7.6690    0.7076    0.5831 C   0  0  0  0  0  0  0  0  0  0  0  0
   -6.8352    1.5886   -0.2611 C   0  0  0  0  0  0  0  0  0  0  0  0
   -7.4212    2.5440   -1.0465 C   0  0  0  0  0  0  0  0  0  0  0  0
   -6.6742    3.3680   -1.8382 C   0  0  0  0  0  0  0  0  0  0  0  0
   -5.3128    3.2178   -1.8312 C   0  0  0  0  0  0  0  0  0  0  0  0
   -4.7746    2.2820   -1.0590 N   0  0  0  0  0  0  0  0  0  0  0  0
   -5.4503    1.4529   -0.2690 C   0  0  0  0  0  0  0  0  0  0  0  0
   -4.8814    0.4388    0.6188 C   0  0  0  0  0  0  0  0  0  0  0  0
   -3.4395    0.3158    0.5350 N   0  0  0  0  0  0  0  0  0  0  0  0
   -2.9899   -0.5224    1.6432 C   0  0  0  0  0  0  0  0  0  0  0  0
   -2.1872   -1.6987    1.2402 C   0  0  0  0  0  0  0  0  0  0  0  0
   -1.1310   -1.4198    0.2354 C   0  0  0  0  0  0  0  0  0  0  0  0
   -1.6886   -0.6015   -0.9093 C   0  0  0  0  0  0  0  0  0  0  0  0
   -3.1715   -0.3844   -0.7223 C   0  0  0  0  0  0  0  0  0  0  0  0
   -0.4562   -2.5993   -0.2368 N   0  0  0  0  0  0  0  0  0  0  0  0
    0.9157   -2.2385   -0.4831 C   0  0  0  0  0  0  0  0  0  0  0  0
    1.7529   -2.9092   -1.1640 O   0  0  0  0  0  0  0  0  0  0  0  0
    1.2055   -1.0026    0.1554 N   0  0  0  0  0  0  0  0  0  0  0  0
   -0.0026   -0.6124    0.7967 C   0  0  0  0  0  0  0  0  0  0  0  0
   -0.0410    0.2776    1.6861 O   0  0  0  0  0  0  0  0  0  0  0  0
    2.4558   -0.2888    0.1496 C   0  0  0  0  0  0  0  0  0  0  0  0
    3.1119    0.0791    1.3030 C   0  0  0  0  0  0  0  0  0  0  0  0
    4.3061    0.7685    1.2524 C   0  0  0  0  0  0  0  0  0  0  0  0
    4.9029    1.1238    0.0611 C   0  0  0  0  0  0  0  0  0  0  0  0
    4.2592    0.7625   -1.1012 C   0  0  0  0  0  0  0  0  0  0  0  0
    3.0529    0.0659   -1.0421 C   0  0  0  0  0  0  0  0  0  0  0  0
    6.1702    1.8635    0.0843 C   0  0  0  0  0  0  0  0  0  0  0  0
    7.1002    1.6880    1.0855 C   0  0  0  0  0  0  0  0  0  0  0  0
    8.2831    2.3732    1.1257 C   0  0  0  0  0  0  0  0  0  0  0  0
    8.5561    3.2778    0.1211 C   0  0  0  0  0  0  0  0  0  0  0  0
    7.6307    3.4710   -0.9011 C   0  0  0  0  0  0  0  0  0  0  0  0
    6.4471    2.7593   -0.9055 C   0  0  0  0  0  0  0  0  0  0  0  0
    9.7960    4.0442    0.1021 C   0  0  0  0  0  0  0  0  0  0  0  0
   10.0793    4.9514   -0.8908 O   0  0  0  0  0  0  0  0  0  0  0  0
   10.6182    3.8567    1.0296 O   0  0  0  0  0  0  0  0  0  0  0  0
   -0.9340   -3.9194   -0.4751 C   0  0  0  0  0  0  0  0  0  0  0  0
   -1.4003   -4.7429    0.5064 C   0  0  0  0  0  0  0  0  0  0  0  0
   -1.8364   -6.0049    0.1590 C   0  0  0  0  0  0  0  0  0  0  0  0
   -2.2645   -6.7430    1.1011 O   0  0  0  0  0  0  0  0  0  0  0  0
   -1.8185   -6.4525   -1.1119 N   0  0  0  0  0  0  0  0  0  0  0  0
   -1.3555   -5.6327   -2.0793 C   0  0  0  0  0  0  0  0  0  0  0  0
   -0.9380   -4.4254   -1.7489 N   0  0  0  0  0  0  0  0  0  0  0  0
   -8.6846    1.1762    0.7215 H   0  0  0  0  0  0  0  0  0  0  0  0
   -7.8925   -0.2702    0.0770 H   0  0  0  0  0  0  0  0  0  0  0  0
   -7.1908    0.5697    1.5703 H   0  0  0  0  0  0  0  0  0  0  0  0
   -8.4966    2.6660   -1.0562 H   0  0  0  0  0  0  0  0  0  0  0  0
   -7.1541    4.1001   -2.4369 H   0  0  0  0  0  0  0  0  0  0  0  0
   -4.7350    3.8852   -2.4693 H   0  0  0  0  0  0  0  0  0  0  0  0
   -5.3559   -0.5586    0.3703 H   0  0  0  0  0  0  0  0  0  0  0  0
   -5.1561    0.5992    1.6881 H   0  0  0  0  0  0  0  0  0  0  0  0
   -3.8891   -0.8994    2.1872 H   0  0  0  0  0  0  0  0  0  0  0  0
   -2.4697    0.1243    2.4125 H   0  0  0  0  0  0  0  0  0  0  0  0
   -1.7589   -2.1580    2.1717 H   0  0  0  0  0  0  0  0  0  0  0  0
   -2.8813   -2.4689    0.8036 H   0  0  0  0  0  0  0  0  0  0  0  0
   -1.5251   -1.1608   -1.8371 H   0  0  0  0  0  0  0  0  0  0  0  0
   -1.2114    0.3915   -1.0129 H   0  0  0  0  0  0  0  0  0  0  0  0
   -3.7047   -1.3507   -0.6714 H   0  0  0  0  0  0  0  0  0  0  0  0
   -3.5213    0.2405   -1.5460 H   0  0  0  0  0  0  0  0  0  0  0  0
    2.6661   -0.1884    2.2527 H   0  0  0  0  0  0  0  0  0  0  0  0
    4.8252    1.0599    2.1743 H   0  0  0  0  0  0  0  0  0  0  0  0
    4.7083    1.0307   -2.0429 H   0  0  0  0  0  0  0  0  0  0  0  0
    2.5305   -0.2283   -1.9450 H   0  0  0  0  0  0  0  0  0  0  0  0
    6.8761    0.9674    1.8795 H   0  0  0  0  0  0  0  0  0  0  0  0
    8.9946    2.2000    1.9462 H   0  0  0  0  0  0  0  0  0  0  0  0
    7.8607    4.1848   -1.6821 H   0  0  0  0  0  0  0  0  0  0  0  0
    5.7599    2.9461   -1.7230 H   0  0  0  0  0  0  0  0  0  0  0  0
   10.3658    5.9028   -0.6136 H   0  0  0  0  0  0  0  0  0  0  0  0
   -1.4215   -4.4022    1.5422 H   0  0  0  0  0  0  0  0  0  0  0  0
   -2.1556   -7.4124   -1.3430 H   0  0  0  0  0  0  0  0  0  0  0  0
   -1.3536   -6.0262   -3.0963 H   0  0  0  0  0  0  0  0  0  0  0  0
  1  2  1  0
  2  3  2  0
  3  4  1  0
  4  5  2  0
  5  6  1  0
  6  7  2  0
  7  8  1  0
  8  9  1  0
  9 10  1  0
 10 11  1  0
 11 12  1  0
 12 13  1  0
 13 14  1  0
 12 15  1  0
 15 16  1  0
 16 17  2  0
 16 18  1  0
 18 19  1  0
 19 20  2  0
 18 21  1  0
 21 22  2  0
 22 23  1  0
 23 24  2  0
 24 25  1  0
 25 26  2  0
 24 27  1  0
 27 28  2  0
 28 29  1  0
 29 30  2  0
 30 31  1  0
 31 32  2  0
 30 33  1  0
 33 34  1  0
 33 35  2  0
 15 36  1  0
 36 37  2  0
 37 38  1  0
 38 39  2  0
 38 40  1  0
 40 41  1  0
 41 42  2  0
  7  2  1  0
 14  9  1  0
 26 21  1  0
 32 27  1  0
 42 36  1  0
 19 12  1  0
  1 43  1  0
  1 44  1  0
  1 45  1  0
  3 46  1  0
  4 47  1  0
  5 48  1  0
  8 49  1  0
  8 50  1  0
 10 51  1  0
 10 52  1  0
 11 53  1  0
 11 54  1  0
 13 55  1  0
 13 56  1  0
 14 57  1  0
 14 58  1  0
 22 59  1  0
 23 60  1  0
 25 61  1  0
 26 62  1  0
 28 63  1  0
 29 64  1  0
 31 65  1  0
 32 66  1  0
 34 67  1  0
 37 68  1  0
 40 69  1  0
 41 70  1  0
M  END
$$$$
[H]OC(=O)c1nc(C(=O)c2c([H])c([H])c([H])c(O[H])c2[H])c2c([H])c(O[H])c(O[H])c([H])c2c1[H]
     RDKit          3D

 35 37  0  0  0  0  0  0  0  0999 V2000
   -2.1726    4.2054    0.4352 O   0  0  0  0  0  0  0  0  0  0  0  0
   -1.1891    3.4071   -0.0889 C   0  0  0  0  0  0  0  0  0  0  0  0
   -0.2083    3.9684   -0.6305 O   0  0  0  0  0  0  0  0  0  0  0  0
   -1.2225    1.9557   -0.0495 C   0  0  0  0  0  0  0  0  0  0  0  0
   -2.2853    1.3117    0.5372 C   0  0  0  0  0  0  0  0  0  0  0  0
   -2.3298   -0.0804    0.5802 C   0  0  0  0  0  0  0  0  0  0  0  0
   -3.3882   -0.7360    1.1750 C   0  0  0  0  0  0  0  0  0  0  0  0
   -3.4400   -2.1224    1.2337 C   0  0  0  0  0  0  0  0  0  0  0  0
   -4.5182   -2.7668    1.8385 O   0  0  0  0  0  0  0  0  0  0  0  0
   -2.3839   -2.7956    0.6698 C   0  0  0  0  0  0  0  0  0  0  0  0
   -2.3318   -4.1761    0.6722 O   0  0  0  0  0  0  0  0  0  0  0  0
   -1.3084   -2.1284    0.0653 C   0  0  0  0  0  0  0  0  0  0  0  0
   -1.2655   -0.7560    0.0102 C   0  0  0  0  0  0  0  0  0  0  0  0
   -0.2073   -0.1151   -0.5754 C   0  0  0  0  0  0  0  0  0  0  0  0
   -0.2141    1.2539   -0.5894 N   0  0  0  0  0  0  0  0  0  0  0  0
    0.9272   -0.7312   -1.2319 C   0  0  0  0  0  0  0  0  0  0  0  0
    0.8540   -1.7715   -1.9328 O   0  0  0  0  0  0  0  0  0  0  0  0
    2.2817   -0.1399   -1.1026 C   0  0  0  0  0  0  0  0  0  0  0  0
    3.2052   -0.3622   -2.0947 C   0  0  0  0  0  0  0  0  0  0  0  0
    4.4854    0.1783   -1.9967 C   0  0  0  0  0  0  0  0  0  0  0  0
    4.7969    0.9438   -0.8727 C   0  0  0  0  0  0  0  0  0  0  0  0
    3.8800    1.1748    0.1302 C   0  0  0  0  0  0  0  0  0  0  0  0
    4.2398    1.9440    1.2287 O   0  0  0  0  0  0  0  0  0  0  0  0
    2.6131    0.6176   -0.0055 C   0  0  0  0  0  0  0  0  0  0  0  0
   -2.8537    3.8920    1.1313 H   0  0  0  0  0  0  0  0  0  0  0  0
   -3.1164    1.8455    0.9816 H   0  0  0  0  0  0  0  0  0  0  0  0
   -4.2170   -0.1981    1.6175 H   0  0  0  0  0  0  0  0  0  0  0  0
   -4.5836   -3.7673    1.8961 H   0  0  0  0  0  0  0  0  0  0  0  0
   -3.0402   -4.7386    1.0730 H   0  0  0  0  0  0  0  0  0  0  0  0
   -0.4889   -2.6804   -0.3570 H   0  0  0  0  0  0  0  0  0  0  0  0
    2.9831   -0.9462   -2.9621 H   0  0  0  0  0  0  0  0  0  0  0  0
    5.1842   -0.0069   -2.7785 H   0  0  0  0  0  0  0  0  0  0  0  0
    5.7992    1.3820   -0.7691 H   0  0  0  0  0  0  0  0  0  0  0  0
    3.5901    2.1304    1.9793 H   0  0  0  0  0  0  0  0  0  0  0  0
    1.9247    0.8087    0.7824 H   0  0  0  0  0  0  0  0  0  0  0  0
  1  2  1  0
  2  3  2  0
  2  4  1  0
  4  5  2  0
  5  6  1  0
  6  7  2  0
  7  8  1  0
  8  9  1  0
  8 10  2  0
 10 11  1  0
 10 12  1  0
 12 13  2  0
 13 14  1  0
 14 15  2  0
 14 16  1  0
 16 17  2  0
 16 18  1  0
 18 19  2  0
 19 20  1  0
 20 21  2  0
 21 22  1  0
 22 23  1  0
 22 24  2  0
 15  4  1  0
 24 18  1  0
 13  6  1  0
  1 25  1  0
  5 26  1  0
  7 27  1  0
  9 28  1  0
 11 29  1  0
 12 30  1  0
 19 31  1  0
 20 32  1  0
 21 33  1  0
 23 34  1  0
 24 35  1  0
M  END
$$$$
[H]Oc1c([H])c([H])c(C([H])([H])[C@@]([H])(C(=O)N2C([H])([H])C([H])([H])C([H])([H])[C@@]2([H])C(=O)N([H])C([H])([H])C(=O)N([H])[C@]([H])(C(=O)N([H])[C@]([H])(C(=O)N([H])[H])C([H])([H])C([H])(C([H])([H])[H])C([H])([H])[H])C([H])([H])c2c([H])n([H])c3c([H])c([H])c([H])c([H])c23)N([H])[H])c([H])c1[H]
     RDKit          3D

 89 92  0  0  0  0  0  0  0  0999 V2000
   -4.3896   -0.6176   -3.9721 C   0  0  0  0  0  0  0  0  0  0  0  0
   -5.2911   -1.3697   -3.0045 C   0  0  0  0  0  0  0  0  0  0  0  0
   -6.7312   -1.3154   -3.3531 C   0  0  0  0  0  0  0  0  0  0  0  0
   -4.9012   -1.2710   -1.5908 C   0  0  0  0  0  0  0  0  0  0  0  0
   -4.7920    0.0463   -0.9135 C   0  0  2  0  0  0  0  0  0  0  0  0
   -4.3713   -0.3035    0.4807 N   0  0  0  0  0  0  0  0  0  0  0  0
   -3.0758   -0.0376    0.9484 C   0  0  0  0  0  0  0  0  0  0  0  0
   -2.2758    0.5206    0.1476 O   0  0  0  0  0  0  0  0  0  0  0  0
   -2.5907   -0.3688    2.2871 C   0  0  2  0  0  0  0  0  0  0  0  0
   -2.6459    0.7614    3.2548 C   0  0  0  0  0  0  0  0  0  0  0  0
   -3.9311    1.3755    3.5509 C   0  0  0  0  0  0  0  0  0  0  0  0
   -4.8396    1.0389    4.5468 C   0  0  0  0  0  0  0  0  0  0  0  0
   -5.8945    1.8357    4.4160 N   0  0  0  0  0  0  0  0  0  0  0  0
   -5.7525    2.6897    3.3938 C   0  0  0  0  0  0  0  0  0  0  0  0
   -6.5660    3.6836    2.9038 C   0  0  0  0  0  0  0  0  0  0  0  0
   -6.1836    4.4600    1.8231 C   0  0  0  0  0  0  0  0  0  0  0  0
   -4.9561    4.1909    1.2663 C   0  0  0  0  0  0  0  0  0  0  0  0
   -4.1484    3.1990    1.7577 C   0  0  0  0  0  0  0  0  0  0  0  0
   -4.5238    2.4146    2.8393 C   0  0  0  0  0  0  0  0  0  0  0  0
   -1.1441   -0.7196    2.1697 N   0  0  0  0  0  0  0  0  0  0  0  0
   -0.6999   -2.0461    2.2773 C   0  0  0  0  0  0  0  0  0  0  0  0
   -1.6171   -2.9260    2.4615 O   0  0  0  0  0  0  0  0  0  0  0  0
    0.6997   -2.5062    2.1997 C   0  0  0  0  0  0  0  0  0  0  0  0
    1.6507   -1.4420    2.0391 N   0  0  0  0  0  0  0  0  0  0  0  0
    3.0726   -1.7119    1.9375 C   0  0  0  0  0  0  0  0  0  0  0  0
    3.3851   -2.9112    1.9792 O   0  0  0  0  0  0  0  0  0  0  0  0
    3.9692   -0.6228    1.8054 C   0  0  2  0  0  0  0  0  0  0  0  0
    3.4344    0.5426    0.9484 C   0  0  0  0  0  0  0  0  0  0  0  0
    4.6047    1.5281    1.0615 C   0  0  0  0  0  0  0  0  0  0  0  0
    5.7750    0.6782    1.5928 C   0  0  0  0  0  0  0  0  0  0  0  0
    5.2872   -0.6972    1.2648 N   0  0  0  0  0  0  0  0  0  0  0  0
    5.9858   -1.6676    0.5717 C   0  0  0  0  0  0  0  0  0  0  0  0
    5.3036   -2.7277    0.2401 O   0  0  0  0  0  0  0  0  0  0  0  0
    7.3754   -1.7148    0.1491 C   0  0  1  0  0  0  0  0  0  0  0  0
    7.6998   -3.0668   -0.3550 N   0  0  0  0  0  0  0  0  0  0  0  0
    7.9470   -0.7189   -0.7602 C   0  0  0  0  0  0  0  0  0  0  0  0
    7.3763   -0.5590   -2.0952 C   0  0  0  0  0  0  0  0  0  0  0  0
    6.3789    0.3159   -2.4598 C   0  0  0  0  0  0  0  0  0  0  0  0
    5.8623    0.4663   -3.7246 C   0  0  0  0  0  0  0  0  0  0  0  0
    6.3748   -0.3210   -4.7361 C   0  0  0  0  0  0  0  0  0  0  0  0
    5.8680   -0.1834   -6.0189 O   0  0  0  0  0  0  0  0  0  0  0  0
    7.3724   -1.2161   -4.4368 C   0  0  0  0  0  0  0  0  0  0  0  0
    7.8733   -1.3448   -3.1504 C   0  0  0  0  0  0  0  0  0  0  0  0
   -6.0108    0.8204   -0.7826 C   0  0  0  0  0  0  0  0  0  0  0  0
   -6.5906    1.5086   -1.8655 N   0  0  0  0  0  0  0  0  0  0  0  0
   -6.6198    0.9207    0.3357 O   0  0  0  0  0  0  0  0  0  0  0  0
   -3.3662   -1.0008   -3.8032 H   0  0  0  0  0  0  0  0  0  0  0  0
   -4.7029   -0.9362   -4.9996 H   0  0  0  0  0  0  0  0  0  0  0  0
   -4.4741    0.4652   -3.9192 H   0  0  0  0  0  0  0  0  0  0  0  0
   -4.9946   -2.4828   -3.2739 H   0  0  0  0  0  0  0  0  0  0  0  0
   -7.3927   -1.2646   -2.4836 H   0  0  0  0  0  0  0  0  0  0  0  0
   -7.0055   -2.2525   -3.9404 H   0  0  0  0  0  0  0  0  0  0  0  0
   -6.8957   -0.4611   -4.0473 H   0  0  0  0  0  0  0  0  0  0  0  0
   -3.9370   -1.8367   -1.3939 H   0  0  0  0  0  0  0  0  0  0  0  0
   -5.6499   -1.8876   -0.9880 H   0  0  0  0  0  0  0  0  0  0  0  0
   -3.9368    0.6251   -1.3819 H   0  0  0  0  0  0  0  0  0  0  0  0
   -5.0955   -0.7467    1.0605 H   0  0  0  0  0  0  0  0  0  0  0  0
   -3.0996   -1.2822    2.6951 H   0  0  0  0  0  0  0  0  0  0  0  0
   -1.9808    1.5802    2.8009 H   0  0  0  0  0  0  0  0  0  0  0  0
   -2.0701    0.4822    4.1762 H   0  0  0  0  0  0  0  0  0  0  0  0
   -4.6702    0.2605    5.2719 H   0  0  0  0  0  0  0  0  0  0  0  0
   -6.7640    1.8353    5.0215 H   0  0  0  0  0  0  0  0  0  0  0  0
   -7.5431    3.8890    3.3605 H   0  0  0  0  0  0  0  0  0  0  0  0
   -6.8333    5.2491    1.4343 H   0  0  0  0  0  0  0  0  0  0  0  0
   -4.6505    4.8051    0.4124 H   0  0  0  0  0  0  0  0  0  0  0  0
   -3.1719    3.0311    1.2867 H   0  0  0  0  0  0  0  0  0  0  0  0
   -0.5193    0.0861    2.0027 H   0  0  0  0  0  0  0  0  0  0  0  0
    0.8828   -3.0331    3.1974 H   0  0  0  0  0  0  0  0  0  0  0  0
    0.7852   -3.2646    1.3932 H   0  0  0  0  0  0  0  0  0  0  0  0
    1.3089   -0.4662    1.9981 H   0  0  0  0  0  0  0  0  0  0  0  0
    4.0687   -0.0943    2.8613 H   0  0  0  0  0  0  0  0  0  0  0  0
    2.5229    0.9723    1.3432 H   0  0  0  0  0  0  0  0  0  0  0  0
    3.4202    0.1930   -0.0932 H   0  0  0  0  0  0  0  0  0  0  0  0
    4.8428    2.0061    0.0994 H   0  0  0  0  0  0  0  0  0  0  0  0
    4.4006    2.3209    1.7853 H   0  0  0  0  0  0  0  0  0  0  0  0
    5.8559    0.8032    2.6745 H   0  0  0  0  0  0  0  0  0  0  0  0
    6.6283    0.9840    1.0223 H   0  0  0  0  0  0  0  0  0  0  0  0
    7.9864   -1.6710    1.1100 H   0  0  0  0  0  0  0  0  0  0  0  0
    7.2245   -3.7331    0.2760 H   0  0  0  0  0  0  0  0  0  0  0  0
    8.7318   -3.1923   -0.2475 H   0  0  0  0  0  0  0  0  0  0  0  0
    9.0228   -1.1289   -0.9764 H   0  0  0  0  0  0  0  0  0  0  0  0
    8.2335    0.2447   -0.2634 H   0  0  0  0  0  0  0  0  0  0  0  0
    5.9922    0.9295   -1.6588 H   0  0  0  0  0  0  0  0  0  0  0  0
    5.0607    1.1942   -3.9374 H   0  0  0  0  0  0  0  0  0  0  0  0
    6.2858    0.4917   -6.6838 H   0  0  0  0  0  0  0  0  0  0  0  0
    7.7740   -1.8380   -5.2513 H   0  0  0  0  0  0  0  0  0  0  0  0
    8.6740   -2.0711   -2.9373 H   0  0  0  0  0  0  0  0  0  0  0  0
   -6.0988    1.7739   -2.7532 H   0  0  0  0  0  0  0  0  0  0  0  0
   -7.6035    1.8110   -1.8466 H   0  0  0  0  0  0  0  0  0  0  0  0
  1  2  1  0
  2  3  1  0
  2  4  1  0
  4  5  1  0
  5  6  1  0
  6  7  1  0
  7  8  2  0
  7  9  1  0
  9 10  1  0
 10 11  1  0
 11 12  2  0
 12 13  1  0
 13 14  1  0
 14 15  2  0
 15 16  1  0
 16 17  2  0
 17 18  1  0
 18 19  2  0
  9 20  1  0
 20 21  1  0
 21 22  2  0
 21 23  1  0
 23 24  1  0
 24 25  1  0
 25 26  2  0
 25 27  1  0
 27 28  1  0
 28 29  1  0
 29 30  1  0
 30 31  1  0
 31 32  1  0
 32 33  2  0
 32 34  1  0
 34 35  1  0
 34 36  1  0
 36 37  1  0
 37 38  2  0
 38 39  1  0
 39 40  2  0
 40 41  1  0
 40 42  1  0
 42 43  2  0
  5 44  1  0
 44 45  1  0
 44 46  2  0
 19 11  1  0
 31 27  1  0
 43 37  1  0
 19 14  1  0
  1 47  1  0
  1 48  1  0
  1 49  1  0
  2 50  1  0
  3 51  1  0
  3 52  1  0
  3 53  1  0
  4 54  1  0
  4 55  1  0
  5 56  1  6
  6 57  1  0
  9 58  1  1
 10 59  1  0
 10 60  1  0
 12 61  1  0
 13 62  1  0
 15 63  1  0
 16 64  1  0
 17 65  1  0
 18 66  1  0
 20 67  1  0
 23 68  1  0
 23 69  1  0
 24 70  1  0
 27 71  1  1
 28 72  1  0
 28 73  1  0
 29 74  1  0
 29 75  1  0
 30 76  1  0
 30 77  1  0
 34 78  1  1
 35 79  1  0
 35 80  1  0
 36 81  1  0
 36 82  1  0
 38 83  1  0
 39 84  1  0
 41 85  1  0
 42 86  1  0
 43 87  1  0
 45 88  1  0
 45 89  1  0
M  END
$$$$
[H]Oc1c([H])c([H])c(C([H])([H])[C@@]([H])(C(=O)N([H])[C@]([H])(C(=O)N([H])[C@]([H])(C(=O)N([H])[C@]([H])(C(=O)N([H])[C@]([H])(C(=O)N([H])[H])C([H])([H])C([H])(C([H])([H])[H])C([H])([H])[H])C([H])([H])C([H])([H])C(=O)N([H])[H])C([H])([H])C([H])([H])C(=O)N([H])[H])C([H])([H])c2c([H])c([H])c([H])c([H])c2[H])N([H])[H])c([H])c1[H]
     RDKit          3D

 98 99  0  0  0  0  0  0  0  0999 V2000
   -7.4400    3.1088    0.3673 C   0  0  0  0  0  0  0  0  0  0  0  0
   -7.0428    2.0425    1.3842 C   0  0  0  0  0  0  0  0  0  0  0  0
   -8.3996    1.5382    1.9328 C   0  0  0  0  0  0  0  0  0  0  0  0
   -6.2904    2.6430    2.5295 C   0  0  0  0  0  0  0  0  0  0  0  0
   -5.0404    3.3708    2.2425 C   0  0  2  0  0  0  0  0  0  0  0  0
   -3.8755    2.8240    1.7269 N   0  0  0  0  0  0  0  0  0  0  0  0
   -3.4160    1.7031    1.0775 C   0  0  0  0  0  0  0  0  0  0  0  0
   -4.0718    0.7121    0.7646 O   0  0  0  0  0  0  0  0  0  0  0  0
   -1.9485    1.6283    0.6755 C   0  0  2  0  0  0  0  0  0  0  0  0
   -1.8316    2.7109   -0.4218 C   0  0  0  0  0  0  0  0  0  0  0  0
   -2.7629    2.4054   -1.5523 C   0  0  0  0  0  0  0  0  0  0  0  0
   -2.6374    3.4750   -2.6002 C   0  0  0  0  0  0  0  0  0  0  0  0
   -3.5087    3.3498   -3.7089 N   0  0  0  0  0  0  0  0  0  0  0  0
   -1.8393    4.4161   -2.5323 O   0  0  0  0  0  0  0  0  0  0  0  0
   -1.5936    0.3970    0.0670 N   0  0  0  0  0  0  0  0  0  0  0  0
   -0.4498   -0.3701    0.3702 C   0  0  0  0  0  0  0  0  0  0  0  0
    0.3932   -0.0531    1.2356 O   0  0  0  0  0  0  0  0  0  0  0  0
   -0.2163   -1.6474   -0.3874 C   0  0  2  0  0  0  0  0  0  0  0  0
   -1.4535   -2.4805   -0.2206 C   0  0  0  0  0  0  0  0  0  0  0  0
   -1.2226   -3.7957   -0.9773 C   0  0  0  0  0  0  0  0  0  0  0  0
   -2.3931   -4.6606   -0.8243 C   0  0  0  0  0  0  0  0  0  0  0  0
   -2.3863   -5.9844   -1.3157 N   0  0  0  0  0  0  0  0  0  0  0  0
   -3.4227   -4.2286   -0.2496 O   0  0  0  0  0  0  0  0  0  0  0  0
    0.9691   -2.3092    0.0640 N   0  0  0  0  0  0  0  0  0  0  0  0
    2.2529   -2.0708   -0.4737 C   0  0  0  0  0  0  0  0  0  0  0  0
    2.3193   -1.1921   -1.3988 O   0  0  0  0  0  0  0  0  0  0  0  0
    3.4961   -2.7825   -0.0179 C   0  0  2  0  0  0  0  0  0  0  0  0
    3.4151   -3.2625    1.3792 C   0  0  0  0  0  0  0  0  0  0  0  0
    4.5916   -4.0003    1.8843 C   0  0  0  0  0  0  0  0  0  0  0  0
    4.7135   -5.3799    1.6610 C   0  0  0  0  0  0  0  0  0  0  0  0
    5.8282   -5.9839    2.1955 C   0  0  0  0  0  0  0  0  0  0  0  0
    6.8042   -5.3300    2.9168 C   0  0  0  0  0  0  0  0  0  0  0  0
    6.6730   -3.9642    3.1296 C   0  0  0  0  0  0  0  0  0  0  0  0
    5.5563   -3.3472    2.5983 C   0  0  0  0  0  0  0  0  0  0  0  0
    4.6699   -2.1116   -0.4486 N   0  0  0  0  0  0  0  0  0  0  0  0
    5.1558   -0.8606    0.0489 C   0  0  0  0  0  0  0  0  0  0  0  0
    4.5102   -0.2850    0.9444 O   0  0  0  0  0  0  0  0  0  0  0  0
    6.3884   -0.2412   -0.4649 C   0  0  1  0  0  0  0  0  0  0  0  0
    6.9303   -0.9735   -1.6020 N   0  0  0  0  0  0  0  0  0  0  0  0
    6.2373    1.2224   -0.7143 C   0  0  0  0  0  0  0  0  0  0  0  0
    5.1841    1.5162   -1.6801 C   0  0  0  0  0  0  0  0  0  0  0  0
    5.4616    1.3496   -3.0208 C   0  0  0  0  0  0  0  0  0  0  0  0
    4.4848    1.6596   -3.9344 C   0  0  0  0  0  0  0  0  0  0  0  0
    3.2498    2.1290   -3.5428 C   0  0  0  0  0  0  0  0  0  0  0  0
    2.3090    2.4225   -4.4908 O   0  0  0  0  0  0  0  0  0  0  0  0
    2.9953    2.2911   -2.1734 C   0  0  0  0  0  0  0  0  0  0  0  0
    3.9775    1.9794   -1.2452 C   0  0  0  0  0  0  0  0  0  0  0  0
   -4.8032    4.3979    3.3105 C   0  0  0  0  0  0  0  0  0  0  0  0
   -5.8284    5.1249    3.9493 N   0  0  0  0  0  0  0  0  0  0  0  0
   -3.6209    4.6669    3.6982 O   0  0  0  0  0  0  0  0  0  0  0  0
   -8.1701    2.6460   -0.3215 H   0  0  0  0  0  0  0  0  0  0  0  0
   -6.5915    3.4607   -0.2319 H   0  0  0  0  0  0  0  0  0  0  0  0
   -7.9898    3.9205    0.8859 H   0  0  0  0  0  0  0  0  0  0  0  0
   -6.5756    1.1966    0.9506 H   0  0  0  0  0  0  0  0  0  0  0  0
   -9.0604    1.4160    1.0474 H   0  0  0  0  0  0  0  0  0  0  0  0
   -8.8356    2.2603    2.6312 H   0  0  0  0  0  0  0  0  0  0  0  0
   -8.2270    0.5832    2.4462 H   0  0  0  0  0  0  0  0  0  0  0  0
   -7.0222    3.3505    3.0404 H   0  0  0  0  0  0  0  0  0  0  0  0
   -6.1711    1.8235    3.2845 H   0  0  0  0  0  0  0  0  0  0  0  0
   -5.4214    4.0286    1.3060 H   0  0  0  0  0  0  0  0  0  0  0  0
   -3.0131    3.5619    1.8835 H   0  0  0  0  0  0  0  0  0  0  0  0
   -1.3523    1.9839    1.5062 H   0  0  0  0  0  0  0  0  0  0  0  0
   -0.7784    2.6619   -0.7622 H   0  0  0  0  0  0  0  0  0  0  0  0
   -1.9857    3.7247   -0.0068 H   0  0  0  0  0  0  0  0  0  0  0  0
   -2.4728    1.4580   -2.0903 H   0  0  0  0  0  0  0  0  0  0  0  0
   -3.8146    2.3056   -1.2791 H   0  0  0  0  0  0  0  0  0  0  0  0
   -4.2409    2.5880   -3.7803 H   0  0  0  0  0  0  0  0  0  0  0  0
   -3.5063    3.9903   -4.5461 H   0  0  0  0  0  0  0  0  0  0  0  0
   -2.2718    0.0356   -0.6780 H   0  0  0  0  0  0  0  0  0  0  0  0
   -0.0120   -1.3016   -1.4275 H   0  0  0  0  0  0  0  0  0  0  0  0
   -1.5543   -2.7273    0.8594 H   0  0  0  0  0  0  0  0  0  0  0  0
   -2.3653   -2.0268   -0.6055 H   0  0  0  0  0  0  0  0  0  0  0  0
   -0.9166   -3.6195   -2.0241 H   0  0  0  0  0  0  0  0  0  0  0  0
   -0.3197   -4.2756   -0.5026 H   0  0  0  0  0  0  0  0  0  0  0  0
   -1.8471   -6.7087   -0.7982 H   0  0  0  0  0  0  0  0  0  0  0  0
   -2.8950   -6.2708   -2.1693 H   0  0  0  0  0  0  0  0  0  0  0  0
    0.8807   -3.0173    0.8428 H   0  0  0  0  0  0  0  0  0  0  0  0
    3.4609   -3.7408   -0.6661 H   0  0  0  0  0  0  0  0  0  0  0  0
    2.5539   -3.9689    1.5117 H   0  0  0  0  0  0  0  0  0  0  0  0
    3.2723   -2.3613    2.0473 H   0  0  0  0  0  0  0  0  0  0  0  0
    3.9659   -5.9218    1.0992 H   0  0  0  0  0  0  0  0  0  0  0  0
    5.9459   -7.0526    2.0384 H   0  0  0  0  0  0  0  0  0  0  0  0
    7.6810   -5.8529    3.3323 H   0  0  0  0  0  0  0  0  0  0  0  0
    7.3907   -3.3904    3.6786 H   0  0  0  0  0  0  0  0  0  0  0  0
    5.5012   -2.2683    2.7997 H   0  0  0  0  0  0  0  0  0  0  0  0
    5.2659   -2.5523   -1.2107 H   0  0  0  0  0  0  0  0  0  0  0  0
    7.2179   -0.3178    0.3107 H   0  0  0  0  0  0  0  0  0  0  0  0
    6.2558   -1.1819   -2.3424 H   0  0  0  0  0  0  0  0  0  0  0  0
    7.7881   -0.4976   -1.9755 H   0  0  0  0  0  0  0  0  0  0  0  0
    6.0940    1.7706    0.2617 H   0  0  0  0  0  0  0  0  0  0  0  0
    7.2320    1.6510   -1.0738 H   0  0  0  0  0  0  0  0  0  0  0  0
    6.4411    0.9828   -3.3259 H   0  0  0  0  0  0  0  0  0  0  0  0
    4.6846    1.5350   -4.9974 H   0  0  0  0  0  0  0  0  0  0  0  0
    1.4012    2.7596   -4.2076 H   0  0  0  0  0  0  0  0  0  0  0  0
    2.0219    2.6626   -1.8319 H   0  0  0  0  0  0  0  0  0  0  0  0
    3.7157    2.1477   -0.1969 H   0  0  0  0  0  0  0  0  0  0  0  0
   -6.5067    5.7665    3.4893 H   0  0  0  0  0  0  0  0  0  0  0  0
   -5.9248    5.0133    4.9950 H   0  0  0  0  0  0  0  0  0  0  0  0
  1  2  1  0
  2  3  1  0
  2  4  1  0
  4  5  1  0
  5  6  1  0
  6  7  1  0
  7  8  2  0
  7  9  1  0
  9 10  1  0
 10 11  1  0
 11 12  1  0
 12 13  1  0
 12 14  2  0
  9 15  1  0
 15 16  1  0
 16 17  2  0
 16 18  1  0
 18 19  1  0
 19 20  1  0
 20 21  1  0
 21 22  1  0
 21 23  2  0
 18 24  1  0
 24 25  1  0
 25 26  2  0
 25 27  1  0
 27 28  1  0
 28 29  1  0
 29 30  2  0
 30 31  1  0
 31 32  2  0
 32 33  1  0
 33 34  2  0
 27 35  1  0
 35 36  1  0
 36 37  2  0
 36 38  1  0
 38 39  1  0
 38 40  1  0
 40 41  1  0
 41 42  2  0
 42 43  1  0
 43 44  2  0
 44 45  1  0
 44 46  1  0
 46 47  2  0
  5 48  1  0
 48 49  1  0
 48 50  2  0
 34 29  1  0
 47 41  1  0
  1 51  1  0
  1 52  1  0
  1 53  1  0
  2 54  1  0
  3 55  1  0
  3 56  1  0
  3 57  1  0
  4 58  1  0
  4 59  1  0
  5 60  1  6
  6 61  1  0
  9 62  1  1
 10 63  1  0
 10 64  1  0
 11 65  1  0
 11 66  1  0
 13 67  1  0
 13 68  1  0
 15 69  1  0
 18 70  1  6
 19 71  1  0
 19 72  1  0
 20 73  1  0
 20 74  1  0
 22 75  1  0
 22 76  1  0
 24 77  1  0
 27 78  1  6
 28 79  1  0
 28 80  1  0
 30 81  1  0
 31 82  1  0
 32 83  1  0
 33 84  1  0
 34 85  1  0
 35 86  1  0
 38 87  1  1
 39 88  1  0
 39 89  1  0
 40 90  1  0
 40 91  1  0
 42 92  1  0
 43 93  1  0
 45 94  1  0
 46 95  1  0
 47 96  1  0
 49 97  1  0
 49 98  1  0
M  END
$$$$
[H]c1sc(N([H])C2([H])C([H])([H])C([H])([H])N(C(=O)c3c([H])c(OC([H])([H])[H])c(OC([H])([H])[H])c(OC([H])([H])[H])c3[H])C([H])([H])C2([H])[H])nc1-c1c([H])c([H])c(F)c(Cl)c1[H]
     RDKit          3D

 59 62  0  0  0  0  0  0  0  0999 V2000
   -7.3163   -2.2437   -1.7203 C   0  0  0  0  0  0  0  0  0  0  0  0
   -7.3687   -1.1234   -0.8712 O   0  0  0  0  0  0  0  0  0  0  0  0
   -6.1791   -0.5809   -0.4051 C   0  0  0  0  0  0  0  0  0  0  0  0
   -4.9847   -1.1313   -0.7694 C   0  0  0  0  0  0  0  0  0  0  0  0
   -3.7665   -0.6035   -0.3132 C   0  0  0  0  0  0  0  0  0  0  0  0
   -3.8344    0.4944    0.5178 C   0  0  0  0  0  0  0  0  0  0  0  0
   -5.0776    1.0323    0.8704 C   0  0  0  0  0  0  0  0  0  0  0  0
   -5.0866    2.1349    1.7077 O   0  0  0  0  0  0  0  0  0  0  0  0
   -3.9210    2.7222    2.2070 C   0  0  0  0  0  0  0  0  0  0  0  0
   -6.2526    0.5118    0.4218 C   0  0  0  0  0  0  0  0  0  0  0  0
   -7.4321    1.1047    0.8191 O   0  0  0  0  0  0  0  0  0  0  0  0
   -7.9775    2.1406    0.0405 C   0  0  0  0  0  0  0  0  0  0  0  0
   -2.5425   -1.2311   -0.7365 C   0  0  0  0  0  0  0  0  0  0  0  0
   -2.7199   -2.2512   -1.5365 O   0  0  0  0  0  0  0  0  0  0  0  0
   -1.2091   -0.9599   -0.4573 N   0  0  0  0  0  0  0  0  0  0  0  0
   -0.2074   -1.8627   -1.1087 C   0  0  0  0  0  0  0  0  0  0  0  0
    0.6398   -0.9091   -1.9277 C   0  0  0  0  0  0  0  0  0  0  0  0
    1.5155   -0.0651   -1.0114 C   0  0  0  0  0  0  0  0  0  0  0  0
    0.9052    0.0343    0.3628 C   0  0  0  0  0  0  0  0  0  0  0  0
   -0.6143    0.0371    0.3517 C   0  0  0  0  0  0  0  0  0  0  0  0
    2.8601   -0.5925   -1.0023 N   0  0  0  0  0  0  0  0  0  0  0  0
    3.9102    0.0712   -0.2858 C   0  0  0  0  0  0  0  0  0  0  0  0
    5.1687   -0.2670   -0.1593 N   0  0  0  0  0  0  0  0  0  0  0  0
    5.9773    0.4743    0.5300 C   0  0  0  0  0  0  0  0  0  0  0  0
    5.4562    1.6073    1.1075 C   0  0  0  0  0  0  0  0  0  0  0  0
    3.8231    1.5224    0.6112 S   0  0  0  0  0  0  0  0  0  0  0  0
    7.4102    0.1268    0.6987 C   0  0  0  0  0  0  0  0  0  0  0  0
    8.2637    0.9140    1.4246 C   0  0  0  0  0  0  0  0  0  0  0  0
    9.6109    0.5673    1.5721 C   0  0  0  0  0  0  0  0  0  0  0  0
   10.1195   -0.5707    0.9952 C   0  0  0  0  0  0  0  0  0  0  0  0
   11.4391   -0.9203    1.1334 F   0  0  0  0  0  0  0  0  0  0  0  0
    9.2619   -1.3639    0.2645 C   0  0  0  0  0  0  0  0  0  0  0  0
    9.9305   -2.8101   -0.4623 Cl  0  0  0  0  0  0  0  0  0  0  0  0
    7.9408   -1.0097    0.1287 C   0  0  0  0  0  0  0  0  0  0  0  0
   -8.3738   -2.5570   -1.9493 H   0  0  0  0  0  0  0  0  0  0  0  0
   -6.8452   -1.9870   -2.6861 H   0  0  0  0  0  0  0  0  0  0  0  0
   -6.8175   -3.0884   -1.2064 H   0  0  0  0  0  0  0  0  0  0  0  0
   -4.9464   -1.9876   -1.4180 H   0  0  0  0  0  0  0  0  0  0  0  0
   -2.9703    0.9700    0.9164 H   0  0  0  0  0  0  0  0  0  0  0  0
   -3.2463    3.0690    1.3820 H   0  0  0  0  0  0  0  0  0  0  0  0
   -3.3586    1.9987    2.8281 H   0  0  0  0  0  0  0  0  0  0  0  0
   -4.1963    3.6235    2.7732 H   0  0  0  0  0  0  0  0  0  0  0  0
   -9.0754    2.1823    0.3031 H   0  0  0  0  0  0  0  0  0  0  0  0
   -7.5621    3.1230    0.2690 H   0  0  0  0  0  0  0  0  0  0  0  0
   -7.8826    1.8783   -1.0280 H   0  0  0  0  0  0  0  0  0  0  0  0
    0.3756   -2.2858   -0.2938 H   0  0  0  0  0  0  0  0  0  0  0  0
   -0.6920   -2.5609   -1.7925 H   0  0  0  0  0  0  0  0  0  0  0  0
   -0.0031   -0.2457   -2.5282 H   0  0  0  0  0  0  0  0  0  0  0  0
    1.2963   -1.4865   -2.5740 H   0  0  0  0  0  0  0  0  0  0  0  0
    1.5272    0.9480   -1.4407 H   0  0  0  0  0  0  0  0  0  0  0  0
    1.2282    0.9454    0.9000 H   0  0  0  0  0  0  0  0  0  0  0  0
    1.2186   -0.8337    0.9752 H   0  0  0  0  0  0  0  0  0  0  0  0
   -0.9937   -0.0404    1.4026 H   0  0  0  0  0  0  0  0  0  0  0  0
   -0.8928    1.0408   -0.0234 H   0  0  0  0  0  0  0  0  0  0  0  0
    3.0778   -1.4560   -1.5141 H   0  0  0  0  0  0  0  0  0  0  0  0
    5.9746    2.3612    1.7265 H   0  0  0  0  0  0  0  0  0  0  0  0
    7.8896    1.8149    1.8887 H   0  0  0  0  0  0  0  0  0  0  0  0
   10.2442    1.2154    2.1508 H   0  0  0  0  0  0  0  0  0  0  0  0
    7.2815   -1.6411   -0.4465 H   0  0  0  0  0  0  0  0  0  0  0  0
  1  2  1  0
  2  3  1  0
  3  4  2  0
  4  5  1  0
  5  6  2  0
  6  7  1  0
  7  8  1  0
  8  9  1  0
  7 10  2  0
 10 11  1  0
 11 12  1  0
  5 13  1  0
 13 14  2  0
 13 15  1  0
 15 16  1  0
 16 17  1  0
 17 18  1  0
 18 19  1  0
 19 20  1  0
 18 21  1  0
 21 22  1  0
 22 23  2  0
 23 24  1  0
 24 25  2  0
 25 26  1  0
 24 27  1  0
 27 28  2  0
 28 29  1  0
 29 30  2  0
 30 31  1  0
 30 32  1  0
 32 33  1  0
 32 34  2  0
 10  3  1  0
 20 15  1  0
 26 22  1  0
 34 27  1  0
  1 35  1  0
  1 36  1  0
  1 37  1  0
  4 38  1  0
  6 39  1  0
  9 40  1  0
  9 41  1  0
  9 42  1  0
 12 43  1  0
 12 44  1  0
 12 45  1  0
 16 46  1  0
 16 47  1  0
 17 48  1  0
 17 49  1  0
 18 50  1  0
 19 51  1  0
 19 52  1  0
 20 53  1  0
 20 54  1  0
 21 55  1  0
 25 56  1  0
 28 57  1  0
 29 58  1  0
 34 59  1  0
M  END
$$$$
[H]ON([H])C(=O)C([H])([H])N(C([H])([H])c1c([H])c([H])c(C(F)(F)F)c([H])c1[H])S(=O)(=O)c1c([H])c([H])c(OC([H])([H])[H])c([H])c1[H]
     RDKit          3D

 45 46  0  0  0  0  0  0  0  0999 V2000
    6.5641   -2.4093    0.4522 C   0  0  0  0  0  0  0  0  0  0  0  0
    5.2584   -2.6948    0.0540 O   0  0  0  0  0  0  0  0  0  0  0  0
    4.2432   -1.7534   -0.0771 C   0  0  0  0  0  0  0  0  0  0  0  0
    4.4974   -0.4236    0.1997 C   0  0  0  0  0  0  0  0  0  0  0  0
    3.5388    0.5423    0.0644 C   0  0  0  0  0  0  0  0  0  0  0  0
    2.2328    0.2130   -0.3658 C   0  0  0  0  0  0  0  0  0  0  0  0
    2.0169   -1.1190   -0.6215 C   0  0  0  0  0  0  0  0  0  0  0  0
    2.9815   -2.1109   -0.4907 C   0  0  0  0  0  0  0  0  0  0  0  0
    1.0577    1.4225   -0.6717 S   0  0  0  0  0  0  0  0  0  0  0  0
    1.7660    2.7680   -0.4494 O   0  0  0  0  0  0  0  0  0  0  0  0
    0.8025    1.3965   -2.1860 O   0  0  0  0  0  0  0  0  0  0  0  0
   -0.4034    1.3459    0.1262 N   0  0  0  0  0  0  0  0  0  0  0  0
   -0.6969    2.4800    1.0080 C   0  0  0  0  0  0  0  0  0  0  0  0
   -0.9697    3.6910    0.2313 C   0  0  0  0  0  0  0  0  0  0  0  0
   -0.8796    3.7008   -1.0206 O   0  0  0  0  0  0  0  0  0  0  0  0
   -1.3436    4.8840    0.8562 N   0  0  0  0  0  0  0  0  0  0  0  0
   -1.5903    6.0329    0.1327 O   0  0  0  0  0  0  0  0  0  0  0  0
   -1.5269    1.0344   -0.6867 C   0  0  0  0  0  0  0  0  0  0  0  0
   -2.3062   -0.1615   -0.3442 C   0  0  0  0  0  0  0  0  0  0  0  0
   -3.4558   -0.3901   -1.0974 C   0  0  0  0  0  0  0  0  0  0  0  0
   -4.2953   -1.4344   -0.8726 C   0  0  0  0  0  0  0  0  0  0  0  0
   -4.0384   -2.3434    0.1445 C   0  0  0  0  0  0  0  0  0  0  0  0
   -2.8971   -2.1205    0.8954 C   0  0  0  0  0  0  0  0  0  0  0  0
   -2.0521   -1.0391    0.6438 C   0  0  0  0  0  0  0  0  0  0  0  0
   -4.9659   -3.4364    0.4040 C   0  0  0  0  0  0  0  0  0  0  0  0
   -4.4867   -4.6355   -0.0173 F   0  0  0  0  0  0  0  0  0  0  0  0
   -6.1682   -3.1741   -0.2503 F   0  0  0  0  0  0  0  0  0  0  0  0
   -5.2488   -3.5645    1.7888 F   0  0  0  0  0  0  0  0  0  0  0  0
    6.6130   -2.2123    1.5399 H   0  0  0  0  0  0  0  0  0  0  0  0
    7.0179   -1.5045   -0.0437 H   0  0  0  0  0  0  0  0  0  0  0  0
    7.2150   -3.2614    0.1333 H   0  0  0  0  0  0  0  0  0  0  0  0
    5.5136   -0.1830    0.5316 H   0  0  0  0  0  0  0  0  0  0  0  0
    3.7624    1.5704    0.3099 H   0  0  0  0  0  0  0  0  0  0  0  0
    1.0298   -1.3995   -0.9528 H   0  0  0  0  0  0  0  0  0  0  0  0
    2.7912   -3.1444   -0.6916 H   0  0  0  0  0  0  0  0  0  0  0  0
    0.0641    2.6890    1.7677 H   0  0  0  0  0  0  0  0  0  0  0  0
   -1.6233    2.1999    1.5624 H   0  0  0  0  0  0  0  0  0  0  0  0
   -1.4423    4.9604    1.8734 H   0  0  0  0  0  0  0  0  0  0  0  0
   -2.3973    5.8910   -0.4429 H   0  0  0  0  0  0  0  0  0  0  0  0
   -1.1710    0.8662   -1.7601 H   0  0  0  0  0  0  0  0  0  0  0  0
   -2.2577    1.8701   -0.7922 H   0  0  0  0  0  0  0  0  0  0  0  0
   -3.6955    0.3036   -1.8841 H   0  0  0  0  0  0  0  0  0  0  0  0
   -5.1964   -1.5977   -1.4469 H   0  0  0  0  0  0  0  0  0  0  0  0
   -2.6831   -2.8259    1.7124 H   0  0  0  0  0  0  0  0  0  0  0  0
   -1.1748   -0.9230    1.2838 H   0  0  0  0  0  0  0  0  0  0  0  0
  1  2  1  0
  2  3  1  0
  3  4  2  0
  4  5  1  0
  5  6  2  0
  6  7  1  0
  7  8  2  0
  6  9  1  0
  9 10  2  0
  9 11  2  0
  9 12  1  0
 12 13  1  0
 13 14  1  0
 14 15  2  0
 14 16  1  0
 16 17  1  0
 12 18  1  0
 18 19  1  0
 19 20  2  0
 20 21  1  0
 21 22  2  0
 22 23  1  0
 23 24  2  0
 22 25  1  0
 25 26  1  0
 25 27  1  0
 25 28  1  0
  8  3  1  0
 24 19  1  0
  1 29  1  0
  1 30  1  0
  1 31  1  0
  4 32  1  0
  5 33  1  0
  7 34  1  0
  8 35  1  0
 13 36  1  0
 13 37  1  0
 16 38  1  0
 17 39  1  0
 18 40  1  0
 18 41  1  0
 20 42  1  0
 21 43  1  0
 23 44  1  0
 24 45  1  0
M  END
$$$$
[H]c1nc([H])c(-c2c(O[C@@]3([H])C([H])([H])OC([H])([H])C3([H])[H])nc3sc(N([H])C(=O)N([H])C([H])([H])C([H])([H])[H])nc3c2[H])c([H])c1[H]
     RDKit          3D

 46 49  0  0  0  0  0  0  0  0999 V2000
    7.9734   -1.0936   -1.5935 C   0  0  0  0  0  0  0  0  0  0  0  0
    8.1051   -0.7334   -0.1085 C   0  0  0  0  0  0  0  0  0  0  0  0
    7.0796    0.2186    0.2687 N   0  0  0  0  0  0  0  0  0  0  0  0
    5.7097   -0.0944    0.1417 C   0  0  0  0  0  0  0  0  0  0  0  0
    5.3777   -1.2372   -0.3136 O   0  0  0  0  0  0  0  0  0  0  0  0
    4.7080    0.8119    0.5007 N   0  0  0  0  0  0  0  0  0  0  0  0
    3.3097    0.4925    0.3710 C   0  0  0  0  0  0  0  0  0  0  0  0
    2.2624    1.2303    0.6626 N   0  0  0  0  0  0  0  0  0  0  0  0
    1.0658    0.7704    0.4773 C   0  0  0  0  0  0  0  0  0  0  0  0
   -0.1355    1.4485    0.7434 C   0  0  0  0  0  0  0  0  0  0  0  0
   -1.3368    0.8108    0.4871 C   0  0  0  0  0  0  0  0  0  0  0  0
   -2.5564    1.6196    0.7174 C   0  0  0  0  0  0  0  0  0  0  0  0
   -3.2271    2.1956   -0.3408 C   0  0  0  0  0  0  0  0  0  0  0  0
   -4.3565    2.9612   -0.0922 C   0  0  0  0  0  0  0  0  0  0  0  0
   -4.8074    3.1471    1.1951 C   0  0  0  0  0  0  0  0  0  0  0  0
   -4.1369    2.5746    2.2200 N   0  0  0  0  0  0  0  0  0  0  0  0
   -3.0378    1.8286    1.9883 C   0  0  0  0  0  0  0  0  0  0  0  0
   -1.4787   -0.4566   -0.0138 C   0  0  0  0  0  0  0  0  0  0  0  0
   -2.5557   -1.1768   -0.2960 O   0  0  0  0  0  0  0  0  0  0  0  0
   -3.8582   -1.2099   -0.2377 C   0  0  2  0  0  0  0  0  0  0  0  0
   -4.4025   -2.5726    0.2750 C   0  0  0  0  0  0  0  0  0  0  0  0
   -5.7997   -2.5268   -0.2612 C   0  0  0  0  0  0  0  0  0  0  0  0
   -5.8841   -1.5097   -1.1797 O   0  0  0  0  0  0  0  0  0  0  0  0
   -4.5895   -1.1961   -1.5910 C   0  0  0  0  0  0  0  0  0  0  0  0
   -0.2536   -1.0753   -0.2583 N   0  0  0  0  0  0  0  0  0  0  0  0
    0.9250   -0.4937   -0.0259 C   0  0  0  0  0  0  0  0  0  0  0  0
    2.5852   -0.9531   -0.2056 S   0  0  0  0  0  0  0  0  0  0  0  0
    8.9836   -1.1979   -2.0526 H   0  0  0  0  0  0  0  0  0  0  0  0
    7.3735   -2.0161   -1.7278 H   0  0  0  0  0  0  0  0  0  0  0  0
    7.5040   -0.2105   -2.1046 H   0  0  0  0  0  0  0  0  0  0  0  0
    9.0956   -0.2941    0.0099 H   0  0  0  0  0  0  0  0  0  0  0  0
    8.0201   -1.6797    0.4712 H   0  0  0  0  0  0  0  0  0  0  0  0
    7.3438    1.1534    0.6411 H   0  0  0  0  0  0  0  0  0  0  0  0
    4.9441    1.7431    0.8717 H   0  0  0  0  0  0  0  0  0  0  0  0
   -0.1353    2.4586    1.1445 H   0  0  0  0  0  0  0  0  0  0  0  0
   -2.8974    2.0689   -1.3743 H   0  0  0  0  0  0  0  0  0  0  0  0
   -4.9125    3.4320   -0.9028 H   0  0  0  0  0  0  0  0  0  0  0  0
   -5.6749    3.7278    1.4595 H   0  0  0  0  0  0  0  0  0  0  0  0
   -2.5507    1.3992    2.8665 H   0  0  0  0  0  0  0  0  0  0  0  0
   -4.3619   -0.4354    0.3535 H   0  0  0  0  0  0  0  0  0  0  0  0
   -3.7743   -3.3631   -0.1579 H   0  0  0  0  0  0  0  0  0  0  0  0
   -4.3411   -2.5493    1.3760 H   0  0  0  0  0  0  0  0  0  0  0  0
   -6.0308   -3.5029   -0.7715 H   0  0  0  0  0  0  0  0  0  0  0  0
   -6.4834   -2.3819    0.6034 H   0  0  0  0  0  0  0  0  0  0  0  0
   -4.5890   -0.1733   -1.9725 H   0  0  0  0  0  0  0  0  0  0  0  0
   -4.1986   -1.9593   -2.2640 H   0  0  0  0  0  0  0  0  0  0  0  0
  1  2  1  0
  2  3  1  0
  3  4  1  0
  4  5  2  0
  4  6  1  0
  6  7  1  0
  7  8  2  0
  8  9  1  0
  9 10  2  0
 10 11  1  0
 11 12  1  0
 12 13  2  0
 13 14  1  0
 14 15  2  0
 15 16  1  0
 16 17  2  0
 11 18  2  0
 18 19  1  0
 19 20  1  0
 20 21  1  0
 21 22  1  0
 22 23  1  0
 23 24  1  0
 18 25  1  0
 25 26  2  0
 26 27  1  0
 27  7  1  0
 26  9  1  0
 17 12  1  0
 24 20  1  0
  1 28  1  0
  1 29  1  0
  1 30  1  0
  2 31  1  0
  2 32  1  0
  3 33  1  0
  6 34  1  0
 10 35  1  0
 13 36  1  0
 14 37  1  0
 15 38  1  0
 17 39  1  0
 20 40  1  1
 21 41  1  0
 21 42  1  0
 22 43  1  0
 22 44  1  0
 24 45  1  0
 24 46  1  0
M  END
$$$$
[H]OC(=O)[C@@]1([H])N(C(=O)[C@@]([H])(N([H])C(=O)[C@@]([H])(N([H])[H])C([H])([H])c2c([H])c([H])c(O[H])c([H])c2[H])C([H])([H])c2c([H])c([H])c(O[H])c([H])c2[H])C([H])([H])C([H])([H])C1([H])[H]
     RDKit          3D

 59 61  0  0  0  0  0  0  0  0999 V2000
    2.8899    2.6266   -1.9005 N   0  0  0  0  0  0  0  0  0  0  0  0
    3.3395    1.4157   -1.1795 C   0  0  1  0  0  0  0  0  0  0  0  0
    4.1667    1.9182   -0.0564 C   0  0  0  0  0  0  0  0  0  0  0  0
    4.7540    0.9290    0.8426 C   0  0  0  0  0  0  0  0  0  0  0  0
    5.9929    0.3595    0.5566 C   0  0  0  0  0  0  0  0  0  0  0  0
    6.5639   -0.5652    1.4072 C   0  0  0  0  0  0  0  0  0  0  0  0
    5.9395   -0.9628    2.5672 C   0  0  0  0  0  0  0  0  0  0  0  0
    6.5527   -1.8982    3.3955 O   0  0  0  0  0  0  0  0  0  0  0  0
    4.7123   -0.4067    2.8623 C   0  0  0  0  0  0  0  0  0  0  0  0
    4.1457    0.5180    2.0076 C   0  0  0  0  0  0  0  0  0  0  0  0
    2.1009    0.7390   -0.7522 C   0  0  0  0  0  0  0  0  0  0  0  0
    2.2038   -0.3746   -0.1781 O   0  0  0  0  0  0  0  0  0  0  0  0
    0.8105    1.2464   -0.9393 N   0  0  0  0  0  0  0  0  0  0  0  0
   -0.4037    0.5153   -0.4885 C   0  0  1  0  0  0  0  0  0  0  0  0
   -0.9893    1.4419    0.5492 C   0  0  0  0  0  0  0  0  0  0  0  0
   -2.2132    1.0048    1.2027 C   0  0  0  0  0  0  0  0  0  0  0  0
   -2.1751    0.1905    2.3323 C   0  0  0  0  0  0  0  0  0  0  0  0
   -3.3149   -0.2137    2.9973 C   0  0  0  0  0  0  0  0  0  0  0  0
   -4.5498    0.1821    2.5581 C   0  0  0  0  0  0  0  0  0  0  0  0
   -5.7075   -0.2237    3.2274 O   0  0  0  0  0  0  0  0  0  0  0  0
   -4.6203    0.9886    1.4419 C   0  0  0  0  0  0  0  0  0  0  0  0
   -3.4642    1.3890    0.7799 C   0  0  0  0  0  0  0  0  0  0  0  0
   -1.2781    0.3337   -1.6739 C   0  0  0  0  0  0  0  0  0  0  0  0
   -1.2023    1.2790   -2.5435 O   0  0  0  0  0  0  0  0  0  0  0  0
   -2.1351   -0.7698   -1.8816 N   0  0  0  0  0  0  0  0  0  0  0  0
   -2.3184   -1.8639   -0.9850 C   0  0  0  0  0  0  0  0  0  0  0  0
   -2.4800   -3.0466   -1.9211 C   0  0  0  0  0  0  0  0  0  0  0  0
   -2.5389   -2.4813   -3.3239 C   0  0  0  0  0  0  0  0  0  0  0  0
   -2.9395   -1.0216   -3.0295 C   0  0  1  0  0  0  0  0  0  0  0  0
   -4.3922   -1.0605   -2.8044 C   0  0  0  0  0  0  0  0  0  0  0  0
   -5.0444   -0.8602   -1.6164 O   0  0  0  0  0  0  0  0  0  0  0  0
   -5.1692   -1.3052   -3.8023 O   0  0  0  0  0  0  0  0  0  0  0  0
    3.7535    3.0520   -2.3099 H   0  0  0  0  0  0  0  0  0  0  0  0
    2.5570    3.2714   -1.1233 H   0  0  0  0  0  0  0  0  0  0  0  0
    3.8978    0.7930   -1.9080 H   0  0  0  0  0  0  0  0  0  0  0  0
    3.5238    2.6581    0.5073 H   0  0  0  0  0  0  0  0  0  0  0  0
    4.9515    2.5920   -0.5192 H   0  0  0  0  0  0  0  0  0  0  0  0
    6.4760    0.6763   -0.3547 H   0  0  0  0  0  0  0  0  0  0  0  0
    7.5292   -1.0043    1.1772 H   0  0  0  0  0  0  0  0  0  0  0  0
    6.0541   -2.1593    4.2390 H   0  0  0  0  0  0  0  0  0  0  0  0
    4.2343   -0.7293    3.7775 H   0  0  0  0  0  0  0  0  0  0  0  0
    3.1842    0.9274    2.2778 H   0  0  0  0  0  0  0  0  0  0  0  0
    0.6613    2.1599   -1.4043 H   0  0  0  0  0  0  0  0  0  0  0  0
   -0.1056   -0.4239   -0.0247 H   0  0  0  0  0  0  0  0  0  0  0  0
   -0.2062    1.5866    1.3318 H   0  0  0  0  0  0  0  0  0  0  0  0
   -1.0930    2.4852    0.1063 H   0  0  0  0  0  0  0  0  0  0  0  0
   -1.1911   -0.1203    2.6768 H   0  0  0  0  0  0  0  0  0  0  0  0
   -3.2318   -0.8379    3.8583 H   0  0  0  0  0  0  0  0  0  0  0  0
   -6.0860    0.3380    3.9832 H   0  0  0  0  0  0  0  0  0  0  0  0
   -5.6017    1.2896    1.1123 H   0  0  0  0  0  0  0  0  0  0  0  0
   -3.5750    2.0231   -0.0926 H   0  0  0  0  0  0  0  0  0  0  0  0
   -3.2181   -1.7995   -0.3365 H   0  0  0  0  0  0  0  0  0  0  0  0
   -1.4436   -2.0131   -0.3030 H   0  0  0  0  0  0  0  0  0  0  0  0
   -1.6177   -3.7449   -1.7930 H   0  0  0  0  0  0  0  0  0  0  0  0
   -3.3921   -3.6032   -1.6776 H   0  0  0  0  0  0  0  0  0  0  0  0
   -1.5866   -2.5424   -3.8515 H   0  0  0  0  0  0  0  0  0  0  0  0
   -3.3734   -2.9616   -3.8743 H   0  0  0  0  0  0  0  0  0  0  0  0
   -2.6653   -0.3809   -3.9030 H   0  0  0  0  0  0  0  0  0  0  0  0
   -5.6715   -1.5557   -1.2235 H   0  0  0  0  0  0  0  0  0  0  0  0
  1  2  1  0
  2  3  1  0
  3  4  1  0
  4  5  2  0
  5  6  1  0
  6  7  2  0
  7  8  1  0
  7  9  1  0
  9 10  2  0
  2 11  1  0
 11 12  2  0
 11 13  1  0
 13 14  1  0
 14 15  1  0
 15 16  1  0
 16 17  2  0
 17 18  1  0
 18 19  2  0
 19 20  1  0
 19 21  1  0
 21 22  2  0
 14 23  1  0
 23 24  2  0
 23 25  1  0
 25 26  1  0
 26 27  1  0
 27 28  1  0
 28 29  1  0
 29 30  1  0
 30 31  1  0
 30 32  2  0
 10  4  1  0
 22 16  1  0
 29 25  1  0
  1 33  1  0
  1 34  1  0
  2 35  1  6
  3 36  1  0
  3 37  1  0
  5 38  1  0
  6 39  1  0
  8 40  1  0
  9 41  1  0
 10 42  1  0
 13 43  1  0
 14 44  1  1
 15 45  1  0
 15 46  1  0
 17 47  1  0
 18 48  1  0
 20 49  1  0
 21 50  1  0
 22 51  1  0
 26 52  1  0
 26 53  1  0
 27 54  1  0
 27 55  1  0
 28 56  1  0
 28 57  1  0
 29 58  1  6
 31 59  1  0
M  END
$$$$
[H]OC1(C([H])([H])N([H])S(=O)(=O)c2c([H])c([H])c(C([H])([H])[H])c(-c3c([H])nc(N([H])[H])c(-c4onc(C([H])([H])[H])c4[H])c3[H])c2[H])C([H])([H])C([H])([H])OC([H])([H])C1([H])[H]
     RDKit          3D

 58 61  0  0  0  0  0  0  0  0999 V2000
   -7.5829    2.9462   -1.0266 C   0  0  0  0  0  0  0  0  0  0  0  0
   -6.3624    2.0894   -1.0082 C   0  0  0  0  0  0  0  0  0  0  0  0
   -5.7816    1.4982    0.1179 C   0  0  0  0  0  0  0  0  0  0  0  0
   -4.6821    0.7915   -0.2624 C   0  0  0  0  0  0  0  0  0  0  0  0
   -4.6131    0.9604   -1.5846 O   0  0  0  0  0  0  0  0  0  0  0  0
   -5.5731    1.7035   -2.0206 N   0  0  0  0  0  0  0  0  0  0  0  0
   -3.7129   -0.0123    0.5042 C   0  0  0  0  0  0  0  0  0  0  0  0
   -2.6767   -0.6173   -0.2234 C   0  0  0  0  0  0  0  0  0  0  0  0
   -1.7508   -1.3734    0.4377 C   0  0  0  0  0  0  0  0  0  0  0  0
   -1.8765   -1.5091    1.7989 C   0  0  0  0  0  0  0  0  0  0  0  0
   -2.8626   -0.9340    2.4937 N   0  0  0  0  0  0  0  0  0  0  0  0
   -3.8061   -0.1685    1.8498 C   0  0  0  0  0  0  0  0  0  0  0  0
   -4.8413    0.4301    2.6112 N   0  0  0  0  0  0  0  0  0  0  0  0
   -0.6541   -1.9951   -0.3309 C   0  0  0  0  0  0  0  0  0  0  0  0
    0.0997   -1.2178   -1.2035 C   0  0  0  0  0  0  0  0  0  0  0  0
    1.1384   -1.7650   -1.9265 C   0  0  0  0  0  0  0  0  0  0  0  0
    1.4853   -3.0959   -1.8277 C   0  0  0  0  0  0  0  0  0  0  0  0
    0.7438   -3.8704   -0.9667 C   0  0  0  0  0  0  0  0  0  0  0  0
   -0.3094   -3.3196   -0.2328 C   0  0  0  0  0  0  0  0  0  0  0  0
   -1.0576   -4.2302    0.6559 C   0  0  0  0  0  0  0  0  0  0  0  0
    2.0821   -0.7558   -3.0297 S   0  0  0  0  0  0  0  0  0  0  0  0
    1.2487    0.3142   -3.6359 O   0  0  0  0  0  0  0  0  0  0  0  0
    2.6002   -1.6180   -4.1492 O   0  0  0  0  0  0  0  0  0  0  0  0
    3.4153   -0.0565   -2.2251 N   0  0  0  0  0  0  0  0  0  0  0  0
    2.9917    0.8104   -1.1370 C   0  0  0  0  0  0  0  0  0  0  0  0
    4.1746    1.4265   -0.4283 C   0  0  0  0  0  0  0  0  0  0  0  0
    4.8800    2.1707   -1.3718 O   0  0  0  0  0  0  0  0  0  0  0  0
    5.0931    0.3459    0.0696 C   0  0  0  0  0  0  0  0  0  0  0  0
    5.9816    0.7929    1.1978 C   0  0  0  0  0  0  0  0  0  0  0  0
    6.0178    2.1683    1.2156 O   0  0  0  0  0  0  0  0  0  0  0  0
    4.7836    2.6565    1.6557 C   0  0  0  0  0  0  0  0  0  0  0  0
    3.6774    2.2819    0.6966 C   0  0  0  0  0  0  0  0  0  0  0  0
   -7.6407    3.4506   -2.0087 H   0  0  0  0  0  0  0  0  0  0  0  0
   -7.5513    3.7145   -0.2043 H   0  0  0  0  0  0  0  0  0  0  0  0
   -8.5095    2.3687   -0.8645 H   0  0  0  0  0  0  0  0  0  0  0  0
   -6.1945    1.6289    1.0806 H   0  0  0  0  0  0  0  0  0  0  0  0
   -2.6094   -0.4881   -1.2947 H   0  0  0  0  0  0  0  0  0  0  0  0
   -1.1036   -2.1236    2.2885 H   0  0  0  0  0  0  0  0  0  0  0  0
   -5.7525   -0.0311    2.8290 H   0  0  0  0  0  0  0  0  0  0  0  0
   -4.7100    1.3936    2.9903 H   0  0  0  0  0  0  0  0  0  0  0  0
   -0.1600   -0.1543   -1.2974 H   0  0  0  0  0  0  0  0  0  0  0  0
    2.3049   -3.4715   -2.4146 H   0  0  0  0  0  0  0  0  0  0  0  0
    1.0043   -4.9168   -0.8787 H   0  0  0  0  0  0  0  0  0  0  0  0
   -2.1164   -3.9378    0.7705 H   0  0  0  0  0  0  0  0  0  0  0  0
   -1.0068   -5.2752    0.2170 H   0  0  0  0  0  0  0  0  0  0  0  0
   -0.5300   -4.3346    1.6289 H   0  0  0  0  0  0  0  0  0  0  0  0
    4.1360   -0.7260   -1.9119 H   0  0  0  0  0  0  0  0  0  0  0  0
    2.3258    1.6113   -1.4780 H   0  0  0  0  0  0  0  0  0  0  0  0
    2.4576    0.1691   -0.3867 H   0  0  0  0  0  0  0  0  0  0  0  0
    4.9626    3.1115   -1.1469 H   0  0  0  0  0  0  0  0  0  0  0  0
    5.7283   -0.0107   -0.7842 H   0  0  0  0  0  0  0  0  0  0  0  0
    4.5143   -0.5439    0.4129 H   0  0  0  0  0  0  0  0  0  0  0  0
    7.0114    0.4049    1.0226 H   0  0  0  0  0  0  0  0  0  0  0  0
    5.6263    0.3579    2.1582 H   0  0  0  0  0  0  0  0  0  0  0  0
    4.8434    3.7599    1.7553 H   0  0  0  0  0  0  0  0  0  0  0  0
    4.5924    2.2181    2.6642 H   0  0  0  0  0  0  0  0  0  0  0  0
    2.8744    1.7619    1.2234 H   0  0  0  0  0  0  0  0  0  0  0  0
    3.2331    3.2147    0.2743 H   0  0  0  0  0  0  0  0  0  0  0  0
  1  2  1  0
  2  3  1  0
  3  4  2  0
  4  5  1  0
  5  6  1  0
  4  7  1  0
  7  8  2  0
  8  9  1  0
  9 10  2  0
 10 11  1  0
 11 12  2  0
 12 13  1  0
  9 14  1  0
 14 15  2  0
 15 16  1  0
 16 17  2  0
 17 18  1  0
 18 19  2  0
 19 20  1  0
 16 21  1  0
 21 22  2  0
 21 23  2  0
 21 24  1  0
 24 25  1  0
 25 26  1  0
 26 27  1  0
 26 28  1  0
 28 29  1  0
 29 30  1  0
 30 31  1  0
 31 32  1  0
  6  2  2  0
 12  7  1  0
 19 14  1  0
 32 26  1  0
  1 33  1  0
  1 34  1  0
  1 35  1  0
  3 36  1  0
  8 37  1  0
 10 38  1  0
 13 39  1  0
 13 40  1  0
 15 41  1  0
 17 42  1  0
 18 43  1  0
 20 44  1  0
 20 45  1  0
 20 46  1  0
 24 47  1  0
 25 48  1  0
 25 49  1  0
 27 50  1  0
 28 51  1  0
 28 52  1  0
 29 53  1  0
 29 54  1  0
 31 55  1  0
 31 56  1  0
 32 57  1  0
 32 58  1  0
M  END
$$$$
[H]c1c(C(C([H])([H])[H])(C([H])([H])[H])C([H])([H])[H])noc1N([H])C(=O)[C@]1([H])N(C(=O)c2c([H])c([H])c([H])c(C(F)(F)F)c2[H])C([H])([H])c2c([H])c([H])c([H])c([H])c2C1([H])[H]
     RDKit          3D

 58 61  0  0  0  0  0  0  0  0999 V2000
    5.9630    2.0297    1.1814 C   0  0  0  0  0  0  0  0  0  0  0  0
    5.8068    0.6936    0.5031 C   0  0  0  0  0  0  0  0  0  0  0  0
    6.1686    0.8562   -0.9520 C   0  0  0  0  0  0  0  0  0  0  0  0
    6.7633   -0.2918    1.1732 C   0  0  0  0  0  0  0  0  0  0  0  0
    4.4101    0.2289    0.6516 C   0  0  0  0  0  0  0  0  0  0  0  0
    3.2840    0.7948    0.0540 C   0  0  0  0  0  0  0  0  0  0  0  0
    2.1588    0.0403    0.4204 C   0  0  0  0  0  0  0  0  0  0  0  0
    0.8171    0.3278   -0.0272 N   0  0  0  0  0  0  0  0  0  0  0  0
   -0.2579   -0.4816    0.4160 C   0  0  0  0  0  0  0  0  0  0  0  0
    0.0792   -1.4201    1.2383 O   0  0  0  0  0  0  0  0  0  0  0  0
   -1.6400   -0.2860   -0.0117 C   0  0  1  0  0  0  0  0  0  0  0  0
   -1.6620   -0.8589   -1.4706 C   0  0  0  0  0  0  0  0  0  0  0  0
   -1.5954   -2.3411   -1.3985 C   0  0  0  0  0  0  0  0  0  0  0  0
   -1.1808   -3.0232   -2.5563 C   0  0  0  0  0  0  0  0  0  0  0  0
   -1.0579   -4.3782   -2.6039 C   0  0  0  0  0  0  0  0  0  0  0  0
   -1.3676   -5.0634   -1.4219 C   0  0  0  0  0  0  0  0  0  0  0  0
   -1.7736   -4.4337   -0.2613 C   0  0  0  0  0  0  0  0  0  0  0  0
   -1.8841   -3.0468   -0.2808 C   0  0  0  0  0  0  0  0  0  0  0  0
   -2.3846   -2.4407    0.9937 C   0  0  0  0  0  0  0  0  0  0  0  0
   -2.6517   -1.0326    0.6823 N   0  0  0  0  0  0  0  0  0  0  0  0
   -3.9232   -0.5134    0.9410 C   0  0  0  0  0  0  0  0  0  0  0  0
   -4.8280   -1.1295    1.5193 O   0  0  0  0  0  0  0  0  0  0  0  0
   -4.2350    0.8589    0.4900 C   0  0  0  0  0  0  0  0  0  0  0  0
   -5.1459    1.0061   -0.5598 C   0  0  0  0  0  0  0  0  0  0  0  0
   -5.5353    2.2615   -0.9765 C   0  0  0  0  0  0  0  0  0  0  0  0
   -5.0414    3.4062   -0.3698 C   0  0  0  0  0  0  0  0  0  0  0  0
   -4.1514    3.2367    0.6716 C   0  0  0  0  0  0  0  0  0  0  0  0
   -3.7627    1.9989    1.0778 C   0  0  0  0  0  0  0  0  0  0  0  0
   -3.6351    4.4758    1.3591 C   0  0  0  0  0  0  0  0  0  0  0  0
   -2.3002    4.3843    1.6189 F   0  0  0  0  0  0  0  0  0  0  0  0
   -3.9223    5.5846    0.5561 F   0  0  0  0  0  0  0  0  0  0  0  0
   -4.3703    4.6197    2.5317 F   0  0  0  0  0  0  0  0  0  0  0  0
    2.6218   -0.9145    1.2023 O   0  0  0  0  0  0  0  0  0  0  0  0
    3.8946   -0.8116    1.3326 N   0  0  0  0  0  0  0  0  0  0  0  0
    5.4724    2.7701    0.4903 H   0  0  0  0  0  0  0  0  0  0  0  0
    5.4672    2.0512    2.1586 H   0  0  0  0  0  0  0  0  0  0  0  0
    7.0264    2.3353    1.2503 H   0  0  0  0  0  0  0  0  0  0  0  0
    5.9236   -0.0514   -1.5478 H   0  0  0  0  0  0  0  0  0  0  0  0
    5.7288    1.7543   -1.3736 H   0  0  0  0  0  0  0  0  0  0  0  0
    7.2833    0.9447   -1.0123 H   0  0  0  0  0  0  0  0  0  0  0  0
    6.5435   -1.3090    0.7784 H   0  0  0  0  0  0  0  0  0  0  0  0
    6.6299   -0.1895    2.2514 H   0  0  0  0  0  0  0  0  0  0  0  0
    7.8015   -0.0467    0.8771 H   0  0  0  0  0  0  0  0  0  0  0  0
    3.3143    1.6630   -0.5793 H   0  0  0  0  0  0  0  0  0  0  0  0
    0.6638    1.1443   -0.6669 H   0  0  0  0  0  0  0  0  0  0  0  0
   -1.8554    0.7790   -0.1418 H   0  0  0  0  0  0  0  0  0  0  0  0
   -0.7797   -0.4211   -1.9365 H   0  0  0  0  0  0  0  0  0  0  0  0
   -2.6405   -0.5669   -1.9400 H   0  0  0  0  0  0  0  0  0  0  0  0
   -0.9414   -2.4053   -3.4399 H   0  0  0  0  0  0  0  0  0  0  0  0
   -0.7608   -4.9096   -3.4748 H   0  0  0  0  0  0  0  0  0  0  0  0
   -1.2579   -6.1356   -1.4941 H   0  0  0  0  0  0  0  0  0  0  0  0
   -1.9999   -4.9938    0.6447 H   0  0  0  0  0  0  0  0  0  0  0  0
   -3.3615   -2.9511    1.1974 H   0  0  0  0  0  0  0  0  0  0  0  0
   -1.7763   -2.5915    1.8674 H   0  0  0  0  0  0  0  0  0  0  0  0
   -5.5273    0.1324   -1.0548 H   0  0  0  0  0  0  0  0  0  0  0  0
   -6.2394    2.3788   -1.8007 H   0  0  0  0  0  0  0  0  0  0  0  0
   -5.3212    4.4221   -0.6731 H   0  0  0  0  0  0  0  0  0  0  0  0
   -3.0542    1.8593    1.8961 H   0  0  0  0  0  0  0  0  0  0  0  0
  1  2  1  0
  2  3  1  0
  2  4  1  0
  2  5  1  0
  5  6  1  0
  6  7  2  0
  7  8  1  0
  8  9  1  0
  9 10  2  0
  9 11  1  0
 11 12  1  0
 12 13  1  0
 13 14  2  0
 14 15  1  0
 15 16  2  0
 16 17  1  0
 17 18  2  0
 18 19  1  0
 19 20  1  0
 20 21  1  0
 21 22  2  0
 21 23  1  0
 23 24  2  0
 24 25  1  0
 25 26  2  0
 26 27  1  0
 27 28  2  0
 27 29  1  0
 29 30  1  0
 29 31  1  0
 29 32  1  0
  7 33  1  0
 33 34  1  0
 34  5  2  0
 20 11  1  0
 28 23  1  0
 18 13  1  0
  1 35  1  0
  1 36  1  0
  1 37  1  0
  3 38  1  0
  3 39  1  0
  3 40  1  0
  4 41  1  0
  4 42  1  0
  4 43  1  0
  6 44  1  0
  8 45  1  0
 11 46  1  6
 12 47  1  0
 12 48  1  0
 14 49  1  0
 15 50  1  0
 16 51  1  0
 17 52  1  0
 19 53  1  0
 19 54  1  0
 24 55  1  0
 25 56  1  0
 26 57  1  0
 28 58  1  0
M  END
$$$$
[H]c1c([H])c([H])c(N2C([H])([H])C([H])([H])N(C([H])([H])C([H])([H])N3C(=O)C([H])([H])C4(C([H])([H])C3=O)C([H])([H])C([H])([H])C([H])([H])C4([H])[H])C([H])([H])C2([H])[H])c(OC([H])([H])[H])c1[H]
     RDKit          3D

 59 62  0  0  0  0  0  0  0  0999 V2000
   -7.0666    2.5688    0.3800 C   0  0  0  0  0  0  0  0  0  0  0  0
   -5.9965    1.6590    0.3094 O   0  0  0  0  0  0  0  0  0  0  0  0
   -6.1311    0.3489   -0.1239 C   0  0  0  0  0  0  0  0  0  0  0  0
   -7.3736   -0.1018   -0.5107 C   0  0  0  0  0  0  0  0  0  0  0  0
   -7.5334   -1.4160   -0.9506 C   0  0  0  0  0  0  0  0  0  0  0  0
   -6.4238   -2.2391   -0.9861 C   0  0  0  0  0  0  0  0  0  0  0  0
   -5.1938   -1.7588   -0.5928 C   0  0  0  0  0  0  0  0  0  0  0  0
   -5.0059   -0.4548   -0.1502 C   0  0  0  0  0  0  0  0  0  0  0  0
   -3.7610    0.0333    0.2470 N   0  0  0  0  0  0  0  0  0  0  0  0
   -3.1094    1.1419   -0.4113 C   0  0  0  0  0  0  0  0  0  0  0  0
   -1.6163    1.1526   -0.0652 C   0  0  0  0  0  0  0  0  0  0  0  0
   -1.1590   -0.1892   -0.0512 N   0  0  0  0  0  0  0  0  0  0  0  0
    0.1836   -0.4352   -0.4134 C   0  0  0  0  0  0  0  0  0  0  0  0
    1.2063    0.0940    0.5655 C   0  0  0  0  0  0  0  0  0  0  0  0
    2.5331   -0.1926    0.1343 N   0  0  0  0  0  0  0  0  0  0  0  0
    3.2567    0.7011   -0.6918 C   0  0  0  0  0  0  0  0  0  0  0  0
    2.8826    1.8533   -0.9243 O   0  0  0  0  0  0  0  0  0  0  0  0
    4.5348    0.1757   -1.2917 C   0  0  0  0  0  0  0  0  0  0  0  0
    5.3391   -0.4303   -0.1815 C   0  0  0  0  0  0  0  0  0  0  0  0
    5.4890    0.6317    0.8934 C   0  0  0  0  0  0  0  0  0  0  0  0
    6.6914    1.4075    0.3395 C   0  0  0  0  0  0  0  0  0  0  0  0
    7.6511    0.2689    0.0607 C   0  0  0  0  0  0  0  0  0  0  0  0
    6.7450   -0.7708   -0.5527 C   0  0  0  0  0  0  0  0  0  0  0  0
    4.6152   -1.6576    0.3195 C   0  0  0  0  0  0  0  0  0  0  0  0
    3.1674   -1.3956    0.5305 C   0  0  0  0  0  0  0  0  0  0  0  0
    2.4873   -2.2740    1.0796 O   0  0  0  0  0  0  0  0  0  0  0  0
   -1.6356   -0.8680    1.1048 C   0  0  0  0  0  0  0  0  0  0  0  0
   -3.0826   -0.5988    1.3762 C   0  0  0  0  0  0  0  0  0  0  0  0
   -7.6026    2.6012   -0.5978 H   0  0  0  0  0  0  0  0  0  0  0  0
   -7.7566    2.3853    1.2195 H   0  0  0  0  0  0  0  0  0  0  0  0
   -6.5963    3.5807    0.5502 H   0  0  0  0  0  0  0  0  0  0  0  0
   -8.2465    0.5432   -0.4853 H   0  0  0  0  0  0  0  0  0  0  0  0
   -8.5171   -1.7705   -1.2552 H   0  0  0  0  0  0  0  0  0  0  0  0
   -6.5262   -3.2732   -1.3270 H   0  0  0  0  0  0  0  0  0  0  0  0
   -4.3567   -2.4418   -0.6395 H   0  0  0  0  0  0  0  0  0  0  0  0
   -3.1494    1.0094   -1.5147 H   0  0  0  0  0  0  0  0  0  0  0  0
   -3.4833    2.1307   -0.0798 H   0  0  0  0  0  0  0  0  0  0  0  0
   -1.5296    1.5544    0.9803 H   0  0  0  0  0  0  0  0  0  0  0  0
   -1.1311    1.8234   -0.7716 H   0  0  0  0  0  0  0  0  0  0  0  0
    0.3423   -1.5203   -0.5021 H   0  0  0  0  0  0  0  0  0  0  0  0
    0.3515   -0.0185   -1.4390 H   0  0  0  0  0  0  0  0  0  0  0  0
    0.9588   -0.3283    1.5614 H   0  0  0  0  0  0  0  0  0  0  0  0
    1.1266    1.2097    0.6785 H   0  0  0  0  0  0  0  0  0  0  0  0
    5.0588    0.9755   -1.8434 H   0  0  0  0  0  0  0  0  0  0  0  0
    4.3216   -0.6348   -2.0310 H   0  0  0  0  0  0  0  0  0  0  0  0
    5.8121    0.1315    1.8095 H   0  0  0  0  0  0  0  0  0  0  0  0
    4.6122    1.2789    0.9871 H   0  0  0  0  0  0  0  0  0  0  0  0
    6.4448    1.8728   -0.6412 H   0  0  0  0  0  0  0  0  0  0  0  0
    7.0877    2.1192    1.0742 H   0  0  0  0  0  0  0  0  0  0  0  0
    8.4718    0.5827   -0.6152 H   0  0  0  0  0  0  0  0  0  0  0  0
    8.0402   -0.0788    1.0511 H   0  0  0  0  0  0  0  0  0  0  0  0
    6.9430   -0.8017   -1.6316 H   0  0  0  0  0  0  0  0  0  0  0  0
    7.0255   -1.7530   -0.1173 H   0  0  0  0  0  0  0  0  0  0  0  0
    4.7759   -2.4862   -0.3699 H   0  0  0  0  0  0  0  0  0  0  0  0
    5.0517   -1.9313    1.2993 H   0  0  0  0  0  0  0  0  0  0  0  0
   -1.4477   -1.9741    0.9587 H   0  0  0  0  0  0  0  0  0  0  0  0
   -1.0242   -0.5858    1.9845 H   0  0  0  0  0  0  0  0  0  0  0  0
   -3.5568   -1.5697    1.6428 H   0  0  0  0  0  0  0  0  0  0  0  0
   -3.1944    0.1154    2.2330 H   0  0  0  0  0  0  0  0  0  0  0  0
  1  2  1  0
  2  3  1  0
  3  4  2  0
  4  5  1  0
  5  6  2  0
  6  7  1  0
  7  8  2  0
  8  9  1  0
  9 10  1  0
 10 11  1  0
 11 12  1  0
 12 13  1  0
 13 14  1  0
 14 15  1  0
 15 16  1  0
 16 17  2  0
 16 18  1  0
 18 19  1  0
 19 20  1  0
 20 21  1  0
 21 22  1  0
 22 23  1  0
 19 24  1  0
 24 25  1  0
 25 26  2  0
 12 27  1  0
 27 28  1  0
  8  3  1  0
 28  9  1  0
 25 15  1  0
 23 19  1  0
  1 29  1  0
  1 30  1  0
  1 31  1  0
  4 32  1  0
  5 33  1  0
  6 34  1  0
  7 35  1  0
 10 36  1  0
 10 37  1  0
 11 38  1  0
 11 39  1  0
 13 40  1  0
 13 41  1  0
 14 42  1  0
 14 43  1  0
 18 44  1  0
 18 45  1  0
 20 46  1  0
 20 47  1  0
 21 48  1  0
 21 49  1  0
 22 50  1  0
 22 51  1  0
 23 52  1  0
 23 53  1  0
 24 54  1  0
 24 55  1  0
 27 56  1  0
 27 57  1  0
 28 58  1  0
 28 59  1  0
M  END
$$$$
[H]c1nc2c([H])c([H])c([H])c([H])n2c1C#Cc1c([H])c(C(=O)N([H])c2c([H])c([H])c(C([H])([H])N3C([H])([H])C([H])([H])N(C([H])([H])[H])C([H])([H])C3([H])[H])c(C(F)(F)F)c2[H])c([H])c([H])c1C([H])([H])[H]
     RDKit          3D

 67 71  0  0  0  0  0  0  0  0999 V2000
   -8.5742    1.6981    1.0271 C   0  0  0  0  0  0  0  0  0  0  0  0
   -8.4935    0.2948    1.3032 N   0  0  0  0  0  0  0  0  0  0  0  0
   -7.5100   -0.0987    2.2489 C   0  0  0  0  0  0  0  0  0  0  0  0
   -6.1897   -0.5298    1.6797 C   0  0  0  0  0  0  0  0  0  0  0  0
   -6.2732   -1.3599    0.5217 N   0  0  0  0  0  0  0  0  0  0  0  0
   -5.8227   -0.7384   -0.6897 C   0  0  0  0  0  0  0  0  0  0  0  0
   -4.4030   -0.4161   -0.7877 C   0  0  0  0  0  0  0  0  0  0  0  0
   -3.4720   -0.6992    0.1898 C   0  0  0  0  0  0  0  0  0  0  0  0
   -2.1111   -0.3824    0.0484 C   0  0  0  0  0  0  0  0  0  0  0  0
   -1.6288    0.2291   -1.0770 C   0  0  0  0  0  0  0  0  0  0  0  0
   -0.2722    0.5682   -1.3081 N   0  0  0  0  0  0  0  0  0  0  0  0
    0.8552    0.2067   -0.5793 C   0  0  0  0  0  0  0  0  0  0  0  0
    0.7749   -0.5173    0.4331 O   0  0  0  0  0  0  0  0  0  0  0  0
    2.2075    0.6393   -0.9359 C   0  0  0  0  0  0  0  0  0  0  0  0
    2.4409    1.6499   -1.8393 C   0  0  0  0  0  0  0  0  0  0  0  0
    3.7159    2.0794   -2.2042 C   0  0  0  0  0  0  0  0  0  0  0  0
    4.7852    1.4410   -1.6136 C   0  0  0  0  0  0  0  0  0  0  0  0
    6.1953    1.8216   -1.9322 C   0  0  0  0  0  0  0  0  0  0  0  0
    4.6028    0.4146   -0.6950 C   0  0  0  0  0  0  0  0  0  0  0  0
    3.3184    0.0403   -0.3800 C   0  0  0  0  0  0  0  0  0  0  0  0
    5.7181   -0.2544   -0.0760 C   0  0  0  0  0  0  0  0  0  0  0  0
    6.6539   -0.8302    0.4357 C   0  0  0  0  0  0  0  0  0  0  0  0
    7.7669   -1.5365    1.0307 C   0  0  0  0  0  0  0  0  0  0  0  0
    7.9026   -2.8945    1.0339 C   0  0  0  0  0  0  0  0  0  0  0  0
    9.0507   -3.1553    1.6734 N   0  0  0  0  0  0  0  0  0  0  0  0
    9.6236   -2.0064    2.0622 C   0  0  0  0  0  0  0  0  0  0  0  0
   10.7847   -1.6862    2.7406 C   0  0  0  0  0  0  0  0  0  0  0  0
   11.1522   -0.4051    3.0197 C   0  0  0  0  0  0  0  0  0  0  0  0
   10.3216    0.6071    2.6020 C   0  0  0  0  0  0  0  0  0  0  0  0
    9.1709    0.2900    1.9296 C   0  0  0  0  0  0  0  0  0  0  0  0
    8.8264   -1.0061    1.6629 N   0  0  0  0  0  0  0  0  0  0  0  0
   -2.5803    0.5064   -2.0514 C   0  0  0  0  0  0  0  0  0  0  0  0
   -3.9237    0.1996   -1.9240 C   0  0  0  0  0  0  0  0  0  0  0  0
   -4.8458    0.5340   -3.0345 C   0  0  0  0  0  0  0  0  0  0  0  0
   -5.8544    1.3860   -2.7265 F   0  0  0  0  0  0  0  0  0  0  0  0
   -5.2712   -0.6077   -3.7319 F   0  0  0  0  0  0  0  0  0  0  0  0
   -4.1012    1.2201   -4.0241 F   0  0  0  0  0  0  0  0  0  0  0  0
   -7.6626   -1.7297    0.3338 C   0  0  0  0  0  0  0  0  0  0  0  0
   -8.5679   -0.5553    0.1620 C   0  0  0  0  0  0  0  0  0  0  0  0
   -9.2316    2.1596    1.8009 H   0  0  0  0  0  0  0  0  0  0  0  0
   -7.5872    2.2031    1.0283 H   0  0  0  0  0  0  0  0  0  0  0  0
   -9.1092    1.8146    0.0524 H   0  0  0  0  0  0  0  0  0  0  0  0
   -7.9349   -0.8699    2.9240 H   0  0  0  0  0  0  0  0  0  0  0  0
   -7.2971    0.7911    2.9042 H   0  0  0  0  0  0  0  0  0  0  0  0
   -5.6985   -1.1348    2.4943 H   0  0  0  0  0  0  0  0  0  0  0  0
   -5.5626    0.3720    1.5271 H   0  0  0  0  0  0  0  0  0  0  0  0
   -6.3662    0.2646   -0.6822 H   0  0  0  0  0  0  0  0  0  0  0  0
   -6.2581   -1.2397   -1.5936 H   0  0  0  0  0  0  0  0  0  0  0  0
   -3.7808   -1.1954    1.1014 H   0  0  0  0  0  0  0  0  0  0  0  0
   -1.4616   -0.6325    0.8631 H   0  0  0  0  0  0  0  0  0  0  0  0
   -0.0890    1.1900   -2.1635 H   0  0  0  0  0  0  0  0  0  0  0  0
    1.6143    2.1780   -2.3218 H   0  0  0  0  0  0  0  0  0  0  0  0
    3.8929    2.8720   -2.9129 H   0  0  0  0  0  0  0  0  0  0  0  0
    6.2901    2.9217   -2.0708 H   0  0  0  0  0  0  0  0  0  0  0  0
    6.8607    1.5623   -1.0856 H   0  0  0  0  0  0  0  0  0  0  0  0
    6.4911    1.2589   -2.8349 H   0  0  0  0  0  0  0  0  0  0  0  0
    3.1346   -0.7692    0.3433 H   0  0  0  0  0  0  0  0  0  0  0  0
    7.1993   -3.6103    0.5945 H   0  0  0  0  0  0  0  0  0  0  0  0
   11.4321   -2.4902    3.0653 H   0  0  0  0  0  0  0  0  0  0  0  0
   12.0553   -0.1553    3.5474 H   0  0  0  0  0  0  0  0  0  0  0  0
   10.5709    1.6324    2.7999 H   0  0  0  0  0  0  0  0  0  0  0  0
    8.4984    1.0692    1.5892 H   0  0  0  0  0  0  0  0  0  0  0  0
   -2.2251    0.9962   -2.9674 H   0  0  0  0  0  0  0  0  0  0  0  0
   -7.6988   -2.3154   -0.6225 H   0  0  0  0  0  0  0  0  0  0  0  0
   -8.0626   -2.3566    1.1487 H   0  0  0  0  0  0  0  0  0  0  0  0
   -9.6019   -0.9693    0.0320 H   0  0  0  0  0  0  0  0  0  0  0  0
   -8.3850    0.0358   -0.7578 H   0  0  0  0  0  0  0  0  0  0  0  0
  1  2  1  0
  2  3  1  0
  3  4  1  0
  4  5  1  0
  5  6  1  0
  6  7  1  0
  7  8  2  0
  8  9  1  0
  9 10  2  0
 10 11  1  0
 11 12  1  0
 12 13  2  0
 12 14  1  0
 14 15  2  0
 15 16  1  0
 16 17  2  0
 17 18  1  0
 17 19  1  0
 19 20  2  0
 19 21  1  0
 21 22  3  0
 22 23  1  0
 23 24  2  0
 24 25  1  0
 25 26  2  0
 26 27  1  0
 27 28  2  0
 28 29  1  0
 29 30  2  0
 30 31  1  0
 10 32  1  0
 32 33  2  0
 33 34  1  0
 34 35  1  0
 34 36  1  0
 34 37  1  0
  5 38  1  0
 38 39  1  0
 39  2  1  0
 33  7  1  0
 20 14  1  0
 31 23  1  0
 31 26  1  0
  1 40  1  0
  1 41  1  0
  1 42  1  0
  3 43  1  0
  3 44  1  0
  4 45  1  0
  4 46  1  0
  6 47  1  0
  6 48  1  0
  8 49  1  0
  9 50  1  0
 11 51  1  0
 15 52  1  0
 16 53  1  0
 18 54  1  0
 18 55  1  0
 18 56  1  0
 20 57  1  0
 24 58  1  0
 27 59  1  0
 28 60  1  0
 29 61  1  0
 30 62  1  0
 32 63  1  0
 38 64  1  0
 38 65  1  0
 39 66  1  0
 39 67  1  0
M  END
$$$$
[H]c1nc(C(=O)N([H])[H])c(N([H])c2c([H])c([H])c(C3([H])C([H])([H])C([H])([H])N(C4([H])C([H])([H])C([H])([H])C([H])([H])C4([H])[H])C([H])([H])C3([H])[H])c([H])c2[H])nc1N1C([H])([H])C([H])([H])C([H])([H])[C@@]([H])(N([H])C(=O)N2C([H])([H])C([H])([H])C([H])([H])C2([H])[H])C1([H])[H]
     RDKit          3D

 85 90  0  0  0  0  0  0  0  0999 V2000
   -2.2170   -0.5439   -7.0291 N   0  0  0  0  0  0  0  0  0  0  0  0
   -1.1800   -0.5240   -6.0059 C   0  0  0  0  0  0  0  0  0  0  0  0
   -0.0719   -0.8626   -6.4312 O   0  0  0  0  0  0  0  0  0  0  0  0
   -1.5671   -0.1239   -4.6660 C   0  0  0  0  0  0  0  0  0  0  0  0
   -2.8796    0.2202   -4.4825 N   0  0  0  0  0  0  0  0  0  0  0  0
   -3.3497    0.6122   -3.3043 C   0  0  0  0  0  0  0  0  0  0  0  0
   -2.5358    0.6957   -2.1902 C   0  0  0  0  0  0  0  0  0  0  0  0
   -1.2704    0.3641   -2.3667 N   0  0  0  0  0  0  0  0  0  0  0  0
   -0.7488   -0.0449   -3.5646 C   0  0  0  0  0  0  0  0  0  0  0  0
    0.5969   -0.4291   -3.6669 N   0  0  0  0  0  0  0  0  0  0  0  0
    1.5092   -0.3337   -2.6047 C   0  0  0  0  0  0  0  0  0  0  0  0
    2.5309   -1.2898   -2.5032 C   0  0  0  0  0  0  0  0  0  0  0  0
    3.4893   -1.2542   -1.5212 C   0  0  0  0  0  0  0  0  0  0  0  0
    3.4281   -0.2208   -0.5991 C   0  0  0  0  0  0  0  0  0  0  0  0
    2.4487    0.7420   -0.6530 C   0  0  0  0  0  0  0  0  0  0  0  0
    1.4913    0.6611   -1.6778 C   0  0  0  0  0  0  0  0  0  0  0  0
    4.4621   -0.1752    0.4609 C   0  0  0  0  0  0  0  0  0  0  0  0
    4.3367   -1.4107    1.3117 C   0  0  0  0  0  0  0  0  0  0  0  0
    5.5012   -1.5213    2.2960 C   0  0  0  0  0  0  0  0  0  0  0  0
    6.7625   -1.4343    1.6562 N   0  0  0  0  0  0  0  0  0  0  0  0
    6.7380   -1.1145    0.2772 C   0  0  0  0  0  0  0  0  0  0  0  0
    5.8260    0.0072   -0.1214 C   0  0  0  0  0  0  0  0  0  0  0  0
    7.8243   -0.9677    2.4486 C   0  0  0  0  0  0  0  0  0  0  0  0
    7.7033    0.4347    2.9820 C   0  0  0  0  0  0  0  0  0  0  0  0
    9.1277    1.0021    3.0379 C   0  0  0  0  0  0  0  0  0  0  0  0
    9.9747   -0.2764    2.9712 C   0  0  0  0  0  0  0  0  0  0  0  0
    9.1878   -0.9960    1.8592 C   0  0  0  0  0  0  0  0  0  0  0  0
   -3.0485    1.1148   -0.9254 N   0  0  0  0  0  0  0  0  0  0  0  0
   -2.1638    1.2264    0.2183 C   0  0  0  0  0  0  0  0  0  0  0  0
   -2.6097    0.1311    1.1915 C   0  0  0  0  0  0  0  0  0  0  0  0
   -4.0640    0.3445    1.5605 C   0  0  0  0  0  0  0  0  0  0  0  0
   -4.9443    0.4588    0.3513 C   0  0  2  0  0  0  0  0  0  0  0  0
   -4.4133    1.4507   -0.6586 C   0  0  0  0  0  0  0  0  0  0  0  0
   -6.2826    0.8248    0.7653 N   0  0  0  0  0  0  0  0  0  0  0  0
   -7.3492   -0.0864    0.5615 C   0  0  0  0  0  0  0  0  0  0  0  0
   -7.2002   -1.2114    0.0386 O   0  0  0  0  0  0  0  0  0  0  0  0
   -8.6497    0.3022    0.9722 N   0  0  0  0  0  0  0  0  0  0  0  0
   -9.8691   -0.5101    0.8440 C   0  0  0  0  0  0  0  0  0  0  0  0
  -10.5749   -0.2364    2.1358 C   0  0  0  0  0  0  0  0  0  0  0  0
  -10.0521    1.0859    2.6329 C   0  0  0  0  0  0  0  0  0  0  0  0
   -9.0769    1.5406    1.5828 C   0  0  0  0  0  0  0  0  0  0  0  0
   -2.3793    0.3403   -7.5454 H   0  0  0  0  0  0  0  0  0  0  0  0
   -2.7683   -1.3786   -7.2416 H   0  0  0  0  0  0  0  0  0  0  0  0
   -4.3822    0.8652   -3.2286 H   0  0  0  0  0  0  0  0  0  0  0  0
    0.9836   -0.8132   -4.5495 H   0  0  0  0  0  0  0  0  0  0  0  0
    2.5597   -2.0851   -3.2314 H   0  0  0  0  0  0  0  0  0  0  0  0
    4.2809   -2.0048   -1.4507 H   0  0  0  0  0  0  0  0  0  0  0  0
    2.3964    1.5477    0.0620 H   0  0  0  0  0  0  0  0  0  0  0  0
    0.7670    1.4628   -1.6678 H   0  0  0  0  0  0  0  0  0  0  0  0
    4.2271    0.6897    1.1220 H   0  0  0  0  0  0  0  0  0  0  0  0
    3.4281   -1.2654    1.9618 H   0  0  0  0  0  0  0  0  0  0  0  0
    4.2730   -2.2844    0.6656 H   0  0  0  0  0  0  0  0  0  0  0  0
    5.3583   -0.8254    3.1491 H   0  0  0  0  0  0  0  0  0  0  0  0
    5.4076   -2.5488    2.7454 H   0  0  0  0  0  0  0  0  0  0  0  0
    7.7581   -0.9974   -0.1231 H   0  0  0  0  0  0  0  0  0  0  0  0
    6.3462   -2.0343   -0.2543 H   0  0  0  0  0  0  0  0  0  0  0  0
    5.7619   -0.0097   -1.2397 H   0  0  0  0  0  0  0  0  0  0  0  0
    6.2260    1.0051    0.1406 H   0  0  0  0  0  0  0  0  0  0  0  0
    7.8674   -1.6264    3.3678 H   0  0  0  0  0  0  0  0  0  0  0  0
    7.1065    1.1112    2.3704 H   0  0  0  0  0  0  0  0  0  0  0  0
    7.3359    0.4692    4.0186 H   0  0  0  0  0  0  0  0  0  0  0  0
    9.3584    1.5446    2.0746 H   0  0  0  0  0  0  0  0  0  0  0  0
    9.3195    1.5919    3.9311 H   0  0  0  0  0  0  0  0  0  0  0  0
   11.0060   -0.0812    2.6812 H   0  0  0  0  0  0  0  0  0  0  0  0
    9.8365   -0.7860    3.9349 H   0  0  0  0  0  0  0  0  0  0  0  0
    9.3492   -0.3851    0.9697 H   0  0  0  0  0  0  0  0  0  0  0  0
    9.5750   -2.0269    1.7369 H   0  0  0  0  0  0  0  0  0  0  0  0
   -2.3327    2.2251    0.7208 H   0  0  0  0  0  0  0  0  0  0  0  0
   -1.1303    1.1098   -0.0824 H   0  0  0  0  0  0  0  0  0  0  0  0
   -1.9589    0.0419    2.0579 H   0  0  0  0  0  0  0  0  0  0  0  0
   -2.5712   -0.8174    0.6182 H   0  0  0  0  0  0  0  0  0  0  0  0
   -4.4405   -0.4592    2.2210 H   0  0  0  0  0  0  0  0  0  0  0  0
   -4.1255    1.2892    2.1268 H   0  0  0  0  0  0  0  0  0  0  0  0
   -4.9546   -0.5521   -0.1241 H   0  0  0  0  0  0  0  0  0  0  0  0
   -5.0664    1.6135   -1.5012 H   0  0  0  0  0  0  0  0  0  0  0  0
   -4.3814    2.4402   -0.1084 H   0  0  0  0  0  0  0  0  0  0  0  0
   -6.4167    1.7543    1.2033 H   0  0  0  0  0  0  0  0  0  0  0  0
   -9.6178   -1.5903    0.7758 H   0  0  0  0  0  0  0  0  0  0  0  0
  -10.4110   -0.1299   -0.0196 H   0  0  0  0  0  0  0  0  0  0  0  0
  -11.6646   -0.1271    1.8829 H   0  0  0  0  0  0  0  0  0  0  0  0
  -10.4136   -1.0107    2.9161 H   0  0  0  0  0  0  0  0  0  0  0  0
  -10.8870    1.8287    2.6879 H   0  0  0  0  0  0  0  0  0  0  0  0
   -9.5783    0.9598    3.6398 H   0  0  0  0  0  0  0  0  0  0  0  0
   -8.2402    2.1329    2.0061 H   0  0  0  0  0  0  0  0  0  0  0  0
   -9.6277    2.1645    0.8382 H   0  0  0  0  0  0  0  0  0  0  0  0
  1  2  1  0
  2  3  2  0
  2  4  1  0
  4  5  2  0
  5  6  1  0
  6  7  2  0
  7  8  1  0
  8  9  2  0
  9 10  1  0
 10 11  1  0
 11 12  2  0
 12 13  1  0
 13 14  2  0
 14 15  1  0
 15 16  2  0
 14 17  1  0
 17 18  1  0
 18 19  1  0
 19 20  1  0
 20 21  1  0
 21 22  1  0
 20 23  1  0
 23 24  1  0
 24 25  1  0
 25 26  1  0
 26 27  1  0
  7 28  1  0
 28 29  1  0
 29 30  1  0
 30 31  1  0
 31 32  1  0
 32 33  1  0
 32 34  1  0
 34 35  1  0
 35 36  2  0
 35 37  1  0
 37 38  1  0
 38 39  1  0
 39 40  1  0
 40 41  1  0
  9  4  1  0
 16 11  1  0
 22 17  1  0
 27 23  1  0
 33 28  1  0
 41 37  1  0
  1 42  1  0
  1 43  1  0
  6 44  1  0
 10 45  1  0
 12 46  1  0
 13 47  1  0
 15 48  1  0
 16 49  1  0
 17 50  1  0
 18 51  1  0
 18 52  1  0
 19 53  1  0
 19 54  1  0
 21 55  1  0
 21 56  1  0
 22 57  1  0
 22 58  1  0
 23 59  1  0
 24 60  1  0
 24 61  1  0
 25 62  1  0
 25 63  1  0
 26 64  1  0
 26 65  1  0
 27 66  1  0
 27 67  1  0
 29 68  1  0
 29 69  1  0
 30 70  1  0
 30 71  1  0
 31 72  1  0
 31 73  1  0
 32 74  1  6
 33 75  1  0
 33 76  1  0
 34 77  1  0
 38 78  1  0
 38 79  1  0
 39 80  1  0
 39 81  1  0
 40 82  1  0
 40 83  1  0
 41 84  1  0
 41 85  1  0
M  END
$$$$
[H]OC(=O)c1nc(C(=O)c2c([H])c([H])c([H])c([H])c2[H])c2c([H])c(O[H])c(O[H])c([H])c2c1[H]
     RDKit          3D

 34 36  0  0  0  0  0  0  0  0999 V2000
   -0.5753    3.4031   -2.5794 O   0  0  0  0  0  0  0  0  0  0  0  0
   -1.6547    2.7445   -2.0228 C   0  0  0  0  0  0  0  0  0  0  0  0
   -2.7966    3.2169   -2.1487 O   0  0  0  0  0  0  0  0  0  0  0  0
   -1.4697    1.5033   -1.2908 C   0  0  0  0  0  0  0  0  0  0  0  0
   -2.5941    0.8922   -0.7597 C   0  0  0  0  0  0  0  0  0  0  0  0
   -2.4603   -0.2897   -0.0595 C   0  0  0  0  0  0  0  0  0  0  0  0
   -3.5882   -0.8974    0.4789 C   0  0  0  0  0  0  0  0  0  0  0  0
   -3.4647   -2.0674    1.1855 C   0  0  0  0  0  0  0  0  0  0  0  0
   -4.5639   -2.7352    1.7578 O   0  0  0  0  0  0  0  0  0  0  0  0
   -2.2020   -2.5884    1.3270 C   0  0  0  0  0  0  0  0  0  0  0  0
   -2.0421   -3.7583    2.0286 O   0  0  0  0  0  0  0  0  0  0  0  0
   -1.0685   -1.9766    0.7846 C   0  0  0  0  0  0  0  0  0  0  0  0
   -1.1811   -0.8183    0.0814 C   0  0  0  0  0  0  0  0  0  0  0  0
   -0.0550   -0.2127   -0.4482 C   0  0  0  0  0  0  0  0  0  0  0  0
   -0.2570    0.9556   -1.1289 N   0  0  0  0  0  0  0  0  0  0  0  0
    1.2946   -0.7677   -0.3649 C   0  0  0  0  0  0  0  0  0  0  0  0
    1.4399   -2.0059   -0.5613 O   0  0  0  0  0  0  0  0  0  0  0  0
    2.4708    0.0317   -0.0783 C   0  0  0  0  0  0  0  0  0  0  0  0
    2.4593    1.2351    0.5894 C   0  0  0  0  0  0  0  0  0  0  0  0
    3.6479    1.9144    0.8271 C   0  0  0  0  0  0  0  0  0  0  0  0
    4.8468    1.3904    0.3940 C   0  0  0  0  0  0  0  0  0  0  0  0
    4.8927    0.1952   -0.2759 C   0  0  0  0  0  0  0  0  0  0  0  0
    3.7065   -0.4719   -0.5048 C   0  0  0  0  0  0  0  0  0  0  0  0
   -0.5123    4.4188   -2.6372 H   0  0  0  0  0  0  0  0  0  0  0  0
   -3.5940    1.2997   -0.8651 H   0  0  0  0  0  0  0  0  0  0  0  0
   -4.5675   -0.4498    0.3476 H   0  0  0  0  0  0  0  0  0  0  0  0
   -5.4938   -2.3574    1.6572 H   0  0  0  0  0  0  0  0  0  0  0  0
   -1.1085   -4.1457    2.1326 H   0  0  0  0  0  0  0  0  0  0  0  0
   -0.0962   -2.4262    0.9469 H   0  0  0  0  0  0  0  0  0  0  0  0
    1.5061    1.6549    0.9358 H   0  0  0  0  0  0  0  0  0  0  0  0
    3.6835    2.8620    1.3534 H   0  0  0  0  0  0  0  0  0  0  0  0
    5.8153    1.8945    0.5617 H   0  0  0  0  0  0  0  0  0  0  0  0
    5.8337   -0.2262   -0.6248 H   0  0  0  0  0  0  0  0  0  0  0  0
    3.7487   -1.4173   -1.0391 H   0  0  0  0  0  0  0  0  0  0  0  0
  1  2  1  0
  2  3  2  0
  2  4  1  0
  4  5  2  0
  5  6  1  0
  6  7  2  0
  7  8  1  0
  8  9  1  0
  8 10  2  0
 10 11  1  0
 10 12  1  0
 12 13  2  0
 13 14  1  0
 14 15  2  0
 14 16  1  0
 16 17  2  0
 16 18  1  0
 18 19  2  0
 19 20  1  0
 20 21  2  0
 21 22  1  0
 22 23  2  0
 15  4  1  0
 23 18  1  0
 13  6  1  0
  1 24  1  0
  5 25  1  0
  7 26  1  0
  9 27  1  0
 11 28  1  0
 12 29  1  0
 19 30  1  0
 20 31  1  0
 21 32  1  0
 22 33  1  0
 23 34  1  0
M  END
$$$$
[H]c1nc(N([H])c2c([H])c([H])c(OC([H])([H])C([H])([H])N3C([H])([H])C([H])([H])C([H])([H])C3([H])[H])c(OC([H])([H])[H])c2[H])nc(N([H])c2c([H])c([H])c([H])c([H])c2S(=O)(=O)C([H])(C([H])([H])[H])C([H])([H])[H])c1Cl
     RDKit          3D

 69 72  0  0  0  0  0  0  0  0999 V2000
    3.0745   -4.0489   -0.4760 C   0  0  0  0  0  0  0  0  0  0  0  0
    3.9334   -2.9420   -0.2963 O   0  0  0  0  0  0  0  0  0  0  0  0
    3.3900   -1.6802   -0.0957 C   0  0  0  0  0  0  0  0  0  0  0  0
    1.9859   -1.5190   -0.0737 C   0  0  0  0  0  0  0  0  0  0  0  0
    1.3843   -0.3105    0.1173 C   0  0  0  0  0  0  0  0  0  0  0  0
    0.0057   -0.0539    0.1293 N   0  0  0  0  0  0  0  0  0  0  0  0
   -1.0153   -0.8721   -0.4229 C   0  0  0  0  0  0  0  0  0  0  0  0
   -0.8037   -2.0315   -1.0634 N   0  0  0  0  0  0  0  0  0  0  0  0
   -1.7968   -2.7745   -1.5709 C   0  0  0  0  0  0  0  0  0  0  0  0
   -3.1071   -2.3616   -1.4489 C   0  0  0  0  0  0  0  0  0  0  0  0
   -4.4394   -3.2800   -2.0870 Cl  0  0  0  0  0  0  0  0  0  0  0  0
   -3.3766   -1.1452   -0.7809 C   0  0  0  0  0  0  0  0  0  0  0  0
   -4.7174   -0.7557   -0.6618 N   0  0  0  0  0  0  0  0  0  0  0  0
   -5.1791    0.4229   -0.0427 C   0  0  0  0  0  0  0  0  0  0  0  0
   -4.3667    1.4302    0.4495 C   0  0  0  0  0  0  0  0  0  0  0  0
   -4.9106    2.5813    1.0330 C   0  0  0  0  0  0  0  0  0  0  0  0
   -6.2499    2.7306    1.1261 C   0  0  0  0  0  0  0  0  0  0  0  0
   -7.0599    1.7109    0.6274 C   0  0  0  0  0  0  0  0  0  0  0  0
   -6.5776    0.5686    0.0501 C   0  0  0  0  0  0  0  0  0  0  0  0
   -7.6380   -0.6526   -0.5588 S   0  0  0  0  0  0  0  0  0  0  0  0
   -7.5059   -0.7886   -2.0549 O   0  0  0  0  0  0  0  0  0  0  0  0
   -7.3975   -2.0155    0.0642 O   0  0  0  0  0  0  0  0  0  0  0  0
   -9.3319   -0.1634   -0.1749 C   0  0  0  0  0  0  0  0  0  0  0  0
  -10.2959   -1.1256   -0.8672 C   0  0  0  0  0  0  0  0  0  0  0  0
   -9.5284   -0.1979    1.3149 C   0  0  0  0  0  0  0  0  0  0  0  0
   -2.3057   -0.5054   -0.3253 N   0  0  0  0  0  0  0  0  0  0  0  0
    2.2581    0.7809    0.2947 C   0  0  0  0  0  0  0  0  0  0  0  0
    3.6269    0.6482    0.2774 C   0  0  0  0  0  0  0  0  0  0  0  0
    4.2042   -0.5875    0.0812 C   0  0  0  0  0  0  0  0  0  0  0  0
    5.5816   -0.7380    0.0608 O   0  0  0  0  0  0  0  0  0  0  0  0
    6.4642    0.3544    0.2364 C   0  0  0  0  0  0  0  0  0  0  0  0
    7.8675   -0.1856    0.1571 C   0  0  0  0  0  0  0  0  0  0  0  0
    8.8924    0.7919    0.3134 N   0  0  0  0  0  0  0  0  0  0  0  0
    8.9955    1.3722    1.6125 C   0  0  0  0  0  0  0  0  0  0  0  0
    9.5452    2.7834    1.4099 C   0  0  0  0  0  0  0  0  0  0  0  0
    9.0259    3.1567    0.0486 C   0  0  0  0  0  0  0  0  0  0  0  0
    8.9166    1.8386   -0.6554 C   0  0  0  0  0  0  0  0  0  0  0  0
    3.7407   -4.9568   -0.4665 H   0  0  0  0  0  0  0  0  0  0  0  0
    2.4837   -4.0011   -1.3948 H   0  0  0  0  0  0  0  0  0  0  0  0
    2.3929   -4.0791    0.4149 H   0  0  0  0  0  0  0  0  0  0  0  0
    1.3864   -2.4086   -0.2001 H   0  0  0  0  0  0  0  0  0  0  0  0
   -0.3365    0.8542    0.6077 H   0  0  0  0  0  0  0  0  0  0  0  0
   -1.5721   -3.6961   -2.0748 H   0  0  0  0  0  0  0  0  0  0  0  0
   -5.4214   -1.4301   -1.0936 H   0  0  0  0  0  0  0  0  0  0  0  0
   -3.2968    1.3907    0.4070 H   0  0  0  0  0  0  0  0  0  0  0  0
   -4.2333    3.3590    1.4126 H   0  0  0  0  0  0  0  0  0  0  0  0
   -6.6721    3.6099    1.5714 H   0  0  0  0  0  0  0  0  0  0  0  0
   -8.1238    1.8814    0.7131 H   0  0  0  0  0  0  0  0  0  0  0  0
   -9.5295    0.8351   -0.5871 H   0  0  0  0  0  0  0  0  0  0  0  0
  -10.7033   -0.6448   -1.7739 H   0  0  0  0  0  0  0  0  0  0  0  0
  -11.0974   -1.3461   -0.1408 H   0  0  0  0  0  0  0  0  0  0  0  0
   -9.7798   -2.0660   -1.1524 H   0  0  0  0  0  0  0  0  0  0  0  0
  -10.0883    0.6891    1.7030 H   0  0  0  0  0  0  0  0  0  0  0  0
   -8.5401   -0.2014    1.8292 H   0  0  0  0  0  0  0  0  0  0  0  0
  -10.1430   -1.0816    1.6051 H   0  0  0  0  0  0  0  0  0  0  0  0
    1.8077    1.7433    0.4470 H   0  0  0  0  0  0  0  0  0  0  0  0
    4.3047    1.4806    0.4123 H   0  0  0  0  0  0  0  0  0  0  0  0
    6.2279    0.8133    1.2132 H   0  0  0  0  0  0  0  0  0  0  0  0
    6.2481    1.0665   -0.5989 H   0  0  0  0  0  0  0  0  0  0  0  0
    7.9623   -0.7988   -0.7362 H   0  0  0  0  0  0  0  0  0  0  0  0
    7.9714   -0.8951    1.0287 H   0  0  0  0  0  0  0  0  0  0  0  0
    8.0461    1.4093    2.1669 H   0  0  0  0  0  0  0  0  0  0  0  0
    9.7534    0.8130    2.2013 H   0  0  0  0  0  0  0  0  0  0  0  0
   10.6658    2.7728    1.4202 H   0  0  0  0  0  0  0  0  0  0  0  0
    9.1372    3.4255    2.2229 H   0  0  0  0  0  0  0  0  0  0  0  0
    8.0694    3.6932    0.1571 H   0  0  0  0  0  0  0  0  0  0  0  0
    9.8078    3.8160   -0.4306 H   0  0  0  0  0  0  0  0  0  0  0  0
    8.1121    1.8046   -1.4041 H   0  0  0  0  0  0  0  0  0  0  0  0
    9.8713    1.7122   -1.2462 H   0  0  0  0  0  0  0  0  0  0  0  0
  1  2  1  0
  2  3  1  0
  3  4  2  0
  4  5  1  0
  5  6  1  0
  6  7  1  0
  7  8  2  0
  8  9  1  0
  9 10  2  0
 10 11  1  0
 10 12  1  0
 12 13  1  0
 13 14  1  0
 14 15  2  0
 15 16  1  0
 16 17  2  0
 17 18  1  0
 18 19  2  0
 19 20  1  0
 20 21  2  0
 20 22  2  0
 20 23  1  0
 23 24  1  0
 23 25  1  0
 12 26  2  0
  5 27  2  0
 27 28  1  0
 28 29  2  0
 29 30  1  0
 30 31  1  0
 31 32  1  0
 32 33  1  0
 33 34  1  0
 34 35  1  0
 35 36  1  0
 36 37  1  0
 29  3  1  0
 37 33  1  0
 26  7  1  0
 19 14  1  0
  1 38  1  0
  1 39  1  0
  1 40  1  0
  4 41  1  0
  6 42  1  0
  9 43  1  0
 13 44  1  0
 15 45  1  0
 16 46  1  0
 17 47  1  0
 18 48  1  0
 23 49  1  0
 24 50  1  0
 24 51  1  0
 24 52  1  0
 25 53  1  0
 25 54  1  0
 25 55  1  0
 27 56  1  0
 28 57  1  0
 31 58  1  0
 31 59  1  0
 32 60  1  0
 32 61  1  0
 34 62  1  0
 34 63  1  0
 35 64  1  0
 35 65  1  0
 36 66  1  0
 36 67  1  0
 37 68  1  0
 37 69  1  0
M  END
$$$$
[H]OC(=O)[C@]1([H])C([H])([H])C([H])([H])[C@@]([H])(N([H])C(=O)c2c([H])c([H])c3c(nc(-c4c([H])c([H])c(C(C([H])([H])[H])(C([H])([H])[H])C([H])([H])[H])c([H])c4[H])n3[H])c2[H])C([H])([H])C1([H])[H]
     RDKit          3D

 60 63  0  0  0  0  0  0  0  0999 V2000
   -8.7762   -0.2244   -0.3416 C   0  0  0  0  0  0  0  0  0  0  0  0
   -7.8416    0.5165    0.6146 C   0  0  0  0  0  0  0  0  0  0  0  0
   -8.2294    1.9765    0.5188 C   0  0  0  0  0  0  0  0  0  0  0  0
   -8.1640   -0.0220    2.0130 C   0  0  0  0  0  0  0  0  0  0  0  0
   -6.4232    0.2632    0.2731 C   0  0  0  0  0  0  0  0  0  0  0  0
   -6.0314   -0.2805   -0.9331 C   0  0  0  0  0  0  0  0  0  0  0  0
   -4.6944   -0.5112   -1.1948 C   0  0  0  0  0  0  0  0  0  0  0  0
   -3.7010   -0.2171   -0.2813 C   0  0  0  0  0  0  0  0  0  0  0  0
   -4.0918    0.3259    0.9211 C   0  0  0  0  0  0  0  0  0  0  0  0
   -5.4332    0.5623    1.1944 C   0  0  0  0  0  0  0  0  0  0  0  0
   -2.2880   -0.4964   -0.5955 C   0  0  0  0  0  0  0  0  0  0  0  0
   -1.2175   -0.3605    0.2037 N   0  0  0  0  0  0  0  0  0  0  0  0
   -0.1017   -0.7579   -0.4362 C   0  0  0  0  0  0  0  0  0  0  0  0
    1.2460   -0.8496   -0.1001 C   0  0  0  0  0  0  0  0  0  0  0  0
    2.1817   -1.3228   -0.9782 C   0  0  0  0  0  0  0  0  0  0  0  0
    1.7354   -1.7082   -2.2224 C   0  0  0  0  0  0  0  0  0  0  0  0
    0.4211   -1.6458   -2.6271 C   0  0  0  0  0  0  0  0  0  0  0  0
   -0.4977   -1.1558   -1.6903 C   0  0  0  0  0  0  0  0  0  0  0  0
   -1.8370   -0.9858   -1.7606 N   0  0  0  0  0  0  0  0  0  0  0  0
    3.5883   -1.4564   -0.6787 C   0  0  0  0  0  0  0  0  0  0  0  0
    4.1879   -2.4891   -1.1813 O   0  0  0  0  0  0  0  0  0  0  0  0
    4.3768   -0.5942    0.0974 N   0  0  0  0  0  0  0  0  0  0  0  0
    5.7727   -0.8795    0.3102 C   0  0  1  0  0  0  0  0  0  0  0  0
    6.5333   -0.0205   -0.6981 C   0  0  0  0  0  0  0  0  0  0  0  0
    6.5012    1.4084   -0.2791 C   0  0  0  0  0  0  0  0  0  0  0  0
    7.3026    1.5554    1.0101 C   0  0  1  0  0  0  0  0  0  0  0  0
    7.5073    0.2511    1.7164 C   0  0  0  0  0  0  0  0  0  0  0  0
    6.2694   -0.6482    1.6891 C   0  0  0  0  0  0  0  0  0  0  0  0
    8.6200    2.1114    0.6149 C   0  0  0  0  0  0  0  0  0  0  0  0
    9.4083    1.3933   -0.2766 O   0  0  0  0  0  0  0  0  0  0  0  0
    9.0767    3.1918    1.0315 O   0  0  0  0  0  0  0  0  0  0  0  0
   -9.7408   -0.3554    0.2187 H   0  0  0  0  0  0  0  0  0  0  0  0
   -8.9922    0.3510   -1.2477 H   0  0  0  0  0  0  0  0  0  0  0  0
   -8.3707   -1.2419   -0.5651 H   0  0  0  0  0  0  0  0  0  0  0  0
   -7.5232    2.6374    1.0356 H   0  0  0  0  0  0  0  0  0  0  0  0
   -8.3292    2.2254   -0.5719 H   0  0  0  0  0  0  0  0  0  0  0  0
   -9.2552    2.0537    0.9348 H   0  0  0  0  0  0  0  0  0  0  0  0
   -9.2038   -0.3456    2.0232 H   0  0  0  0  0  0  0  0  0  0  0  0
   -7.5167   -0.9280    2.1179 H   0  0  0  0  0  0  0  0  0  0  0  0
   -7.9135    0.7238    2.7894 H   0  0  0  0  0  0  0  0  0  0  0  0
   -6.8024   -0.5168   -1.6510 H   0  0  0  0  0  0  0  0  0  0  0  0
   -4.3736   -0.9409   -2.1438 H   0  0  0  0  0  0  0  0  0  0  0  0
   -3.3419    0.5703    1.6524 H   0  0  0  0  0  0  0  0  0  0  0  0
   -5.7605    0.9904    2.1339 H   0  0  0  0  0  0  0  0  0  0  0  0
    1.5578   -0.5288    0.9043 H   0  0  0  0  0  0  0  0  0  0  0  0
    2.4625   -2.0878   -2.9410 H   0  0  0  0  0  0  0  0  0  0  0  0
    0.0773   -1.9473   -3.6019 H   0  0  0  0  0  0  0  0  0  0  0  0
   -2.4129   -1.1992   -2.5821 H   0  0  0  0  0  0  0  0  0  0  0  0
    3.9550    0.2550    0.5197 H   0  0  0  0  0  0  0  0  0  0  0  0
    5.9297   -1.9624    0.0022 H   0  0  0  0  0  0  0  0  0  0  0  0
    6.0616   -0.1566   -1.6740 H   0  0  0  0  0  0  0  0  0  0  0  0
    7.5514   -0.4638   -0.7329 H   0  0  0  0  0  0  0  0  0  0  0  0
    5.4166    1.6544   -0.0872 H   0  0  0  0  0  0  0  0  0  0  0  0
    6.9324    2.0119   -1.0886 H   0  0  0  0  0  0  0  0  0  0  0  0
    6.7354    2.2795    1.6391 H   0  0  0  0  0  0  0  0  0  0  0  0
    7.7267    0.4836    2.7909 H   0  0  0  0  0  0  0  0  0  0  0  0
    8.3980   -0.2558    1.3326 H   0  0  0  0  0  0  0  0  0  0  0  0
    5.5422   -0.1877    2.3814 H   0  0  0  0  0  0  0  0  0  0  0  0
    6.5983   -1.6105    2.1615 H   0  0  0  0  0  0  0  0  0  0  0  0
    9.1907    1.5622   -1.2682 H   0  0  0  0  0  0  0  0  0  0  0  0
  1  2  1  0
  2  3  1  0
  2  4  1  0
  2  5  1  0
  5  6  2  0
  6  7  1  0
  7  8  2  0
  8  9  1  0
  9 10  2  0
  8 11  1  0
 11 12  2  0
 12 13  1  0
 13 14  2  0
 14 15  1  0
 15 16  2  0
 16 17  1  0
 17 18  2  0
 18 19  1  0
 15 20  1  0
 20 21  2  0
 20 22  1  0
 22 23  1  0
 23 24  1  0
 24 25  1  0
 25 26  1  0
 26 27  1  0
 27 28  1  0
 26 29  1  0
 29 30  1  0
 29 31  2  0
 10  5  1  0
 19 11  1  0
 28 23  1  0
 18 13  1  0
  1 32  1  0
  1 33  1  0
  1 34  1  0
  3 35  1  0
  3 36  1  0
  3 37  1  0
  4 38  1  0
  4 39  1  0
  4 40  1  0
  6 41  1  0
  7 42  1  0
  9 43  1  0
 10 44  1  0
 14 45  1  0
 16 46  1  0
 17 47  1  0
 19 48  1  0
 22 49  1  0
 23 50  1  6
 24 51  1  0
 24 52  1  0
 25 53  1  0
 25 54  1  0
 26 55  1  1
 27 56  1  0
 27 57  1  0
 28 58  1  0
 28 59  1  0
 30 60  1  0
M  END
$$$$
[H]c1nc(Oc2c([H])c([H])c(C(F)(F)F)c([H])c2C(=O)N([H])c2c([H])c([H])n([H])c(=O)c2[H])c([H])c([H])c1F
     RDKit          3D

 39 41  0  0  0  0  0  0  0  0999 V2000
   -4.6498   -3.9058    0.8895 F   0  0  0  0  0  0  0  0  0  0  0  0
   -3.8030   -3.0377    0.3162 C   0  0  0  0  0  0  0  0  0  0  0  0
   -2.5775   -2.8376    0.8949 C   0  0  0  0  0  0  0  0  0  0  0  0
   -1.7235   -1.9190    0.2620 C   0  0  0  0  0  0  0  0  0  0  0  0
   -2.0273   -1.2395   -0.8520 C   0  0  0  0  0  0  0  0  0  0  0  0
   -1.1986   -0.3234   -1.4943 O   0  0  0  0  0  0  0  0  0  0  0  0
   -1.1149    1.0051   -1.0808 C   0  0  0  0  0  0  0  0  0  0  0  0
   -2.0398    1.9056   -1.6553 C   0  0  0  0  0  0  0  0  0  0  0  0
   -2.0411    3.2355   -1.2904 C   0  0  0  0  0  0  0  0  0  0  0  0
   -1.1521    3.7299   -0.3654 C   0  0  0  0  0  0  0  0  0  0  0  0
   -0.2500    2.8591    0.1876 C   0  0  0  0  0  0  0  0  0  0  0  0
   -0.2395    1.4716   -0.1914 C   0  0  0  0  0  0  0  0  0  0  0  0
    0.9853    0.7743    0.2541 C   0  0  0  0  0  0  0  0  0  0  0  0
    1.6361    1.2473    1.1934 O   0  0  0  0  0  0  0  0  0  0  0  0
    1.4512   -0.4195   -0.3371 N   0  0  0  0  0  0  0  0  0  0  0  0
    2.6340   -1.0875    0.1775 C   0  0  0  0  0  0  0  0  0  0  0  0
    3.5061   -1.6824   -0.7091 C   0  0  0  0  0  0  0  0  0  0  0  0
    4.5975   -2.3669   -0.2056 C   0  0  0  0  0  0  0  0  0  0  0  0
    4.8630   -2.4894    1.1045 N   0  0  0  0  0  0  0  0  0  0  0  0
    4.0024   -1.9025    1.9534 C   0  0  0  0  0  0  0  0  0  0  0  0
    4.2231   -1.9976    3.2006 O   0  0  0  0  0  0  0  0  0  0  0  0
    2.8966   -1.2071    1.5198 C   0  0  0  0  0  0  0  0  0  0  0  0
   -1.1889    5.1819    0.0297 C   0  0  0  0  0  0  0  0  0  0  0  0
   -2.4247    5.4606    0.6268 F   0  0  0  0  0  0  0  0  0  0  0  0
   -1.1587    5.9276   -1.1212 F   0  0  0  0  0  0  0  0  0  0  0  0
   -0.2322    5.4933    0.9440 F   0  0  0  0  0  0  0  0  0  0  0  0
   -3.2680   -1.4746   -1.3924 N   0  0  0  0  0  0  0  0  0  0  0  0
   -4.1110   -2.3355   -0.8283 C   0  0  0  0  0  0  0  0  0  0  0  0
   -2.2497   -3.3380    1.7832 H   0  0  0  0  0  0  0  0  0  0  0  0
   -0.7519   -1.7898    0.7722 H   0  0  0  0  0  0  0  0  0  0  0  0
   -2.7176    1.5256   -2.3665 H   0  0  0  0  0  0  0  0  0  0  0  0
   -2.7546    3.9490   -1.7357 H   0  0  0  0  0  0  0  0  0  0  0  0
    0.4447    3.2358    0.9045 H   0  0  0  0  0  0  0  0  0  0  0  0
    1.0383   -0.9016   -1.1515 H   0  0  0  0  0  0  0  0  0  0  0  0
    3.3442   -1.6152   -1.7944 H   0  0  0  0  0  0  0  0  0  0  0  0
    5.2659   -2.8236   -0.9273 H   0  0  0  0  0  0  0  0  0  0  0  0
    5.6879   -3.0119    1.4664 H   0  0  0  0  0  0  0  0  0  0  0  0
    2.2106   -0.7593    2.2648 H   0  0  0  0  0  0  0  0  0  0  0  0
   -5.1125   -2.5370   -1.2462 H   0  0  0  0  0  0  0  0  0  0  0  0
  1  2  1  0
  2  3  2  0
  3  4  1  0
  4  5  2  0
  5  6  1  0
  6  7  1  0
  7  8  2  0
  8  9  1  0
  9 10  2  0
 10 11  1  0
 11 12  2  0
 12 13  1  0
 13 14  2  0
 13 15  1  0
 15 16  1  0
 16 17  1  0
 17 18  2  0
 18 19  1  0
 19 20  1  0
 20 21  2  0
 20 22  1  0
 10 23  1  0
 23 24  1  0
 23 25  1  0
 23 26  1  0
  5 27  1  0
 27 28  2  0
 28  2  1  0
 12  7  1  0
 22 16  2  0
  3 29  1  0
  4 30  1  0
  8 31  1  0
  9 32  1  0
 11 33  1  0
 15 34  1  0
 17 35  1  0
 18 36  1  0
 19 37  1  0
 22 38  1  0
 28 39  1  0
M  END
$$$$
[H]N=C(N([H])[H])N([H])C([H])([H])C([H])([H])C([H])([H])[C@@]1([H])C(=O)N([H])[C@]([H])(C([H])([H])c2c([H])c([H])c([H])c([H])c2[H])C(=O)N2C([H])([H])C([H])([H])C([H])([H])[C@@]2([H])C(=O)N1[H]
     RDKit          3D

 57 59  0  0  0  0  0  0  0  0999 V2000
    7.0013    1.8259    1.8270 N   0  0  0  0  0  0  0  0  0  0  0  0
    6.5249    1.4933    0.5394 C   0  0  0  0  0  0  0  0  0  0  0  0
    7.2377    1.8220   -0.4808 N   0  0  0  0  0  0  0  0  0  0  0  0
    5.3086    0.8189    0.2994 N   0  0  0  0  0  0  0  0  0  0  0  0
    4.9368   -0.2717    1.1625 C   0  0  0  0  0  0  0  0  0  0  0  0
    3.6192   -0.8896    0.7833 C   0  0  0  0  0  0  0  0  0  0  0  0
    2.4862    0.1207    0.8475 C   0  0  0  0  0  0  0  0  0  0  0  0
    1.1818   -0.5447    0.4586 C   0  0  2  0  0  0  0  0  0  0  0  0
    1.2846   -1.0599   -0.8863 N   0  0  0  0  0  0  0  0  0  0  0  0
    0.3226   -2.0701   -1.2248 C   0  0  0  0  0  0  0  0  0  0  0  0
    0.6014   -2.7756   -2.2485 O   0  0  0  0  0  0  0  0  0  0  0  0
   -0.8974   -2.2672   -0.4366 C   0  0  2  0  0  0  0  0  0  0  0  0
   -1.4459   -3.6458   -0.8439 C   0  0  0  0  0  0  0  0  0  0  0  0
   -2.9300   -3.5435   -0.7239 C   0  0  0  0  0  0  0  0  0  0  0  0
   -3.1523   -2.1209   -0.1933 C   0  0  0  0  0  0  0  0  0  0  0  0
   -2.0203   -1.4328   -0.8394 N   0  0  0  0  0  0  0  0  0  0  0  0
   -1.9943   -0.2964   -1.6453 C   0  0  0  0  0  0  0  0  0  0  0  0
   -2.6649   -0.3785   -2.7709 O   0  0  0  0  0  0  0  0  0  0  0  0
   -1.3350    0.9992   -1.4515 C   0  0  1  0  0  0  0  0  0  0  0  0
   -2.3924    2.1157   -1.5402 C   0  0  0  0  0  0  0  0  0  0  0  0
   -3.4519    2.0190   -0.5360 C   0  0  0  0  0  0  0  0  0  0  0  0
   -3.2872    2.5806    0.7361 C   0  0  0  0  0  0  0  0  0  0  0  0
   -4.3092    2.4991    1.6760 C   0  0  0  0  0  0  0  0  0  0  0  0
   -5.5062    1.8757    1.4057 C   0  0  0  0  0  0  0  0  0  0  0  0
   -5.6786    1.3244    0.1671 C   0  0  0  0  0  0  0  0  0  0  0  0
   -4.6599    1.4078   -0.7647 C   0  0  0  0  0  0  0  0  0  0  0  0
   -0.5787    1.2122   -0.2711 N   0  0  0  0  0  0  0  0  0  0  0  0
    0.0263    0.3534    0.6385 C   0  0  0  0  0  0  0  0  0  0  0  0
   -0.4892    0.3307    1.8240 O   0  0  0  0  0  0  0  0  0  0  0  0
    7.3305    2.7937    2.0325 H   0  0  0  0  0  0  0  0  0  0  0  0
    7.0443    1.1388    2.6080 H   0  0  0  0  0  0  0  0  0  0  0  0
    8.1448    2.3206   -0.3765 H   0  0  0  0  0  0  0  0  0  0  0  0
    4.7074    1.1238   -0.4949 H   0  0  0  0  0  0  0  0  0  0  0  0
    5.7112   -1.0609    1.0372 H   0  0  0  0  0  0  0  0  0  0  0  0
    4.9557    0.0219    2.2328 H   0  0  0  0  0  0  0  0  0  0  0  0
    3.6935   -1.2810   -0.2507 H   0  0  0  0  0  0  0  0  0  0  0  0
    3.4438   -1.7379    1.4859 H   0  0  0  0  0  0  0  0  0  0  0  0
    2.7329    0.9197    0.1170 H   0  0  0  0  0  0  0  0  0  0  0  0
    2.4640    0.5496    1.8476 H   0  0  0  0  0  0  0  0  0  0  0  0
    1.0698   -1.4110    1.1427 H   0  0  0  0  0  0  0  0  0  0  0  0
    2.0008   -0.7145   -1.5356 H   0  0  0  0  0  0  0  0  0  0  0  0
   -0.7414   -2.2847    0.6559 H   0  0  0  0  0  0  0  0  0  0  0  0
   -0.9930   -4.4488   -0.2554 H   0  0  0  0  0  0  0  0  0  0  0  0
   -1.2140   -3.7849   -1.9389 H   0  0  0  0  0  0  0  0  0  0  0  0
   -3.3704   -4.2931   -0.0340 H   0  0  0  0  0  0  0  0  0  0  0  0
   -3.4613   -3.6595   -1.6908 H   0  0  0  0  0  0  0  0  0  0  0  0
   -4.1289   -1.8279   -0.5603 H   0  0  0  0  0  0  0  0  0  0  0  0
   -3.0599   -2.1207    0.8930 H   0  0  0  0  0  0  0  0  0  0  0  0
   -0.7219    1.1575   -2.3869 H   0  0  0  0  0  0  0  0  0  0  0  0
   -2.7895    2.1219   -2.5894 H   0  0  0  0  0  0  0  0  0  0  0  0
   -1.8278    3.0682   -1.4418 H   0  0  0  0  0  0  0  0  0  0  0  0
   -2.3732    3.0794    0.9816 H   0  0  0  0  0  0  0  0  0  0  0  0
   -4.1746    2.9374    2.6628 H   0  0  0  0  0  0  0  0  0  0  0  0
   -6.3063    1.8157    2.1523 H   0  0  0  0  0  0  0  0  0  0  0  0
   -6.5901    0.8345   -0.0787 H   0  0  0  0  0  0  0  0  0  0  0  0
   -4.8572    0.9737   -1.7147 H   0  0  0  0  0  0  0  0  0  0  0  0
   -0.4272    2.2669   -0.0085 H   0  0  0  0  0  0  0  0  0  0  0  0
  1  2  1  0
  2  3  2  3
  2  4  1  0
  4  5  1  0
  5  6  1  0
  6  7  1  0
  7  8  1  0
  8  9  1  0
  9 10  1  0
 10 11  2  0
 10 12  1  0
 12 13  1  0
 13 14  1  0
 14 15  1  0
 15 16  1  0
 16 17  1  0
 17 18  2  0
 17 19  1  0
 19 20  1  0
 20 21  1  0
 21 22  2  0
 22 23  1  0
 23 24  2  0
 24 25  1  0
 25 26  2  0
 19 27  1  0
 27 28  1  0
 28 29  2  0
 28  8  1  0
 16 12  1  0
 26 21  1  0
  1 30  1  0
  1 31  1  0
  3 32  1  0
  4 33  1  0
  5 34  1  0
  5 35  1  0
  6 36  1  0
  6 37  1  0
  7 38  1  0
  7 39  1  0
  8 40  1  1
  9 41  1  0
 12 42  1  1
 13 43  1  0
 13 44  1  0
 14 45  1  0
 14 46  1  0
 15 47  1  0
 15 48  1  0
 19 49  1  6
 20 50  1  0
 20 51  1  0
 22 52  1  0
 23 53  1  0
 24 54  1  0
 25 55  1  0
 26 56  1  0
 27 57  1  0
M  END
$$$$
[H]OC(=O)[C@@]([H])(N([H])C(=O)[C@@]([H])(N([H])C(=O)[C@@]([H])(N([H])C(=O)[C@@]([H])(N([H])C(=O)[C@@]([H])(N([H])C(=O)c1c([H])c([H])c(S(=O)(=O)N([H])[H])c([H])c1[H])C([H])([H])c1c([H])c([H])c([H])c([H])c1[H])C([H])([H])c1c([H])c([H])c([H])c([H])c1[H])C([H])([H])c1c([H])c([H])c(O[H])c([H])c1[H])C([H])([H])c1c([H])c([H])c([H])c([H])c1[H])C([H])([H])c1c([H])c([H])c([H])c([H])c1[H]
     RDKit          3D

121126  0  0  0  0  0  0  0  0999 V2000
  -10.0123    6.9872   -2.6462 N   0  0  0  0  0  0  0  0  0  0  0  0
  -10.6074    6.0071   -1.3678 S   0  0  0  0  0  0  0  0  0  0  0  0
  -11.1646    6.9509   -0.3234 O   0  0  0  0  0  0  0  0  0  0  0  0
  -11.7072    5.0883   -1.8299 O   0  0  0  0  0  0  0  0  0  0  0  0
   -9.3054    5.0914   -0.6326 C   0  0  0  0  0  0  0  0  0  0  0  0
   -8.9399    3.8557   -1.0942 C   0  0  0  0  0  0  0  0  0  0  0  0
   -7.9007    3.1156   -0.5072 C   0  0  0  0  0  0  0  0  0  0  0  0
   -7.2192    3.6313    0.5637 C   0  0  0  0  0  0  0  0  0  0  0  0
   -7.5904    4.8839    1.0294 C   0  0  0  0  0  0  0  0  0  0  0  0
   -8.6081    5.5985    0.4469 C   0  0  0  0  0  0  0  0  0  0  0  0
   -6.1575    2.8768    1.2019 C   0  0  0  0  0  0  0  0  0  0  0  0
   -5.3544    3.4904    1.9791 O   0  0  0  0  0  0  0  0  0  0  0  0
   -5.9799    1.4932    1.0016 N   0  0  0  0  0  0  0  0  0  0  0  0
   -4.9414    0.7216    1.6374 C   0  0  1  0  0  0  0  0  0  0  0  0
   -5.3835   -0.3353    2.5591 C   0  0  0  0  0  0  0  0  0  0  0  0
   -6.2288   -1.4081    2.0714 C   0  0  0  0  0  0  0  0  0  0  0  0
   -5.7220   -2.6015    1.6441 C   0  0  0  0  0  0  0  0  0  0  0  0
   -6.5266   -3.6365    1.1861 C   0  0  0  0  0  0  0  0  0  0  0  0
   -7.8855   -3.4703    1.1558 C   0  0  0  0  0  0  0  0  0  0  0  0
   -8.4340   -2.2802    1.5798 C   0  0  0  0  0  0  0  0  0  0  0  0
   -7.6216   -1.2662    2.0300 C   0  0  0  0  0  0  0  0  0  0  0  0
   -3.8911    0.3770    0.6423 C   0  0  0  0  0  0  0  0  0  0  0  0
   -3.9548    0.9535   -0.4713 O   0  0  0  0  0  0  0  0  0  0  0  0
   -2.9040   -0.5492    0.9789 N   0  0  0  0  0  0  0  0  0  0  0  0
   -1.8407   -1.0056    0.1972 C   0  0  1  0  0  0  0  0  0  0  0  0
   -2.1113   -1.3045   -1.2195 C   0  0  0  0  0  0  0  0  0  0  0  0
   -3.0576   -2.3460   -1.5798 C   0  0  0  0  0  0  0  0  0  0  0  0
   -4.3066   -2.1330   -2.0506 C   0  0  0  0  0  0  0  0  0  0  0  0
   -5.1328   -3.1877   -2.3601 C   0  0  0  0  0  0  0  0  0  0  0  0
   -4.7076   -4.4969   -2.1968 C   0  0  0  0  0  0  0  0  0  0  0  0
   -3.4313   -4.6952   -1.7157 C   0  0  0  0  0  0  0  0  0  0  0  0
   -2.6017   -3.6614   -1.4055 C   0  0  0  0  0  0  0  0  0  0  0  0
   -0.7084   -0.0236    0.2370 C   0  0  0  0  0  0  0  0  0  0  0  0
   -0.9897    1.1964    0.2277 O   0  0  0  0  0  0  0  0  0  0  0  0
    0.5950   -0.4970    0.2840 N   0  0  0  0  0  0  0  0  0  0  0  0
    1.8276    0.2297    0.3243 C   0  0  1  0  0  0  0  0  0  0  0  0
    2.2100    0.4008    1.8318 C   0  0  0  0  0  0  0  0  0  0  0  0
    2.2859   -0.9482    2.4498 C   0  0  0  0  0  0  0  0  0  0  0  0
    3.4172   -1.7072    2.3932 C   0  0  0  0  0  0  0  0  0  0  0  0
    3.4432   -2.9511    2.9853 C   0  0  0  0  0  0  0  0  0  0  0  0
    2.3409   -3.4511    3.6406 C   0  0  0  0  0  0  0  0  0  0  0  0
    2.3402   -4.7071    4.2486 O   0  0  0  0  0  0  0  0  0  0  0  0
    1.1806   -2.6897    3.7074 C   0  0  0  0  0  0  0  0  0  0  0  0
    1.1703   -1.4538    3.1131 C   0  0  0  0  0  0  0  0  0  0  0  0
    2.9262   -0.4082   -0.3879 C   0  0  0  0  0  0  0  0  0  0  0  0
    2.7286   -1.6207   -0.7500 O   0  0  0  0  0  0  0  0  0  0  0  0
    4.1877    0.1496   -0.7311 N   0  0  0  0  0  0  0  0  0  0  0  0
    5.1802   -0.6217   -1.4204 C   0  0  1  0  0  0  0  0  0  0  0  0
    4.9977   -0.5198   -2.9395 C   0  0  0  0  0  0  0  0  0  0  0  0
    5.1206    0.8584   -3.4493 C   0  0  0  0  0  0  0  0  0  0  0  0
    4.0583    1.7270   -3.5133 C   0  0  0  0  0  0  0  0  0  0  0  0
    4.2419    2.9907   -4.0198 C   0  0  0  0  0  0  0  0  0  0  0  0
    5.4842    3.3970   -4.4656 C   0  0  0  0  0  0  0  0  0  0  0  0
    6.5572    2.5612   -4.4164 C   0  0  0  0  0  0  0  0  0  0  0  0
    6.3498    1.2786   -3.8968 C   0  0  0  0  0  0  0  0  0  0  0  0
    6.5517   -0.2545   -1.1215 C   0  0  0  0  0  0  0  0  0  0  0  0
    6.8385    0.9492   -0.8899 O   0  0  0  0  0  0  0  0  0  0  0  0
    7.5844   -1.2088   -1.0868 N   0  0  0  0  0  0  0  0  0  0  0  0
    8.9474   -0.8506   -0.8350 C   0  0  1  0  0  0  0  0  0  0  0  0
    9.3496   -1.1503    0.5775 C   0  0  0  0  0  0  0  0  0  0  0  0
    8.6241   -0.4154    1.5974 C   0  0  0  0  0  0  0  0  0  0  0  0
    7.4796   -0.8708    2.1902 C   0  0  0  0  0  0  0  0  0  0  0  0
    6.8548   -0.0887    3.1704 C   0  0  0  0  0  0  0  0  0  0  0  0
    7.3711    1.1279    3.5475 C   0  0  0  0  0  0  0  0  0  0  0  0
    8.5142    1.5820    2.9552 C   0  0  0  0  0  0  0  0  0  0  0  0
    9.1241    0.8113    1.9935 C   0  0  0  0  0  0  0  0  0  0  0  0
    9.8831   -1.4088   -1.8245 C   0  0  0  0  0  0  0  0  0  0  0  0
   11.2402   -1.2172   -1.8212 O   0  0  0  0  0  0  0  0  0  0  0  0
    9.3755   -2.1208   -2.7460 O   0  0  0  0  0  0  0  0  0  0  0  0
   -8.9513    6.9235   -2.7005 H   0  0  0  0  0  0  0  0  0  0  0  0
  -10.4274    6.6985   -3.5673 H   0  0  0  0  0  0  0  0  0  0  0  0
   -9.4727    3.4357   -1.9405 H   0  0  0  0  0  0  0  0  0  0  0  0
   -7.6443    2.1408   -0.9137 H   0  0  0  0  0  0  0  0  0  0  0  0
   -7.0352    5.2771    1.8801 H   0  0  0  0  0  0  0  0  0  0  0  0
   -8.9008    6.5929    0.8258 H   0  0  0  0  0  0  0  0  0  0  0  0
   -6.6665    1.0121    0.3417 H   0  0  0  0  0  0  0  0  0  0  0  0
   -4.4295    1.5064    2.3376 H   0  0  0  0  0  0  0  0  0  0  0  0
   -5.9892    0.2017    3.3764 H   0  0  0  0  0  0  0  0  0  0  0  0
   -4.5185   -0.7330    3.1643 H   0  0  0  0  0  0  0  0  0  0  0  0
   -4.6696   -2.8147    1.6477 H   0  0  0  0  0  0  0  0  0  0  0  0
   -6.0739   -4.5827    0.8508 H   0  0  0  0  0  0  0  0  0  0  0  0
   -8.5092   -4.2751    0.7975 H   0  0  0  0  0  0  0  0  0  0  0  0
   -9.5213   -2.1959    1.5352 H   0  0  0  0  0  0  0  0  0  0  0  0
   -8.0852   -0.3482    2.3556 H   0  0  0  0  0  0  0  0  0  0  0  0
   -2.9502   -0.9774    1.9811 H   0  0  0  0  0  0  0  0  0  0  0  0
   -1.4357   -1.9905    0.6908 H   0  0  0  0  0  0  0  0  0  0  0  0
   -2.3409   -0.3253   -1.7432 H   0  0  0  0  0  0  0  0  0  0  0  0
   -1.1169   -1.6133   -1.6793 H   0  0  0  0  0  0  0  0  0  0  0  0
   -4.7214   -1.1292   -2.2171 H   0  0  0  0  0  0  0  0  0  0  0  0
   -6.1404   -3.0207   -2.7425 H   0  0  0  0  0  0  0  0  0  0  0  0
   -5.3491   -5.3314   -2.4376 H   0  0  0  0  0  0  0  0  0  0  0  0
   -3.0561   -5.7167   -1.5716 H   0  0  0  0  0  0  0  0  0  0  0  0
   -1.5983   -3.8667   -1.0243 H   0  0  0  0  0  0  0  0  0  0  0  0
    0.7286   -1.5687    0.2957 H   0  0  0  0  0  0  0  0  0  0  0  0
    1.6647    1.2575   -0.0204 H   0  0  0  0  0  0  0  0  0  0  0  0
    1.4131    0.9751    2.3062 H   0  0  0  0  0  0  0  0  0  0  0  0
    3.1655    0.9312    1.8772 H   0  0  0  0  0  0  0  0  0  0  0  0
    4.3309   -1.3471    1.8760 H   0  0  0  0  0  0  0  0  0  0  0  0
    4.3435   -3.5601    2.9418 H   0  0  0  0  0  0  0  0  0  0  0  0
    3.1433   -5.3187    4.2429 H   0  0  0  0  0  0  0  0  0  0  0  0
    0.3078   -3.0875    4.2285 H   0  0  0  0  0  0  0  0  0  0  0  0
    0.2641   -0.8523    3.1624 H   0  0  0  0  0  0  0  0  0  0  0  0
    4.3578    1.1429   -0.4652 H   0  0  0  0  0  0  0  0  0  0  0  0
    5.0069   -1.6996   -1.1954 H   0  0  0  0  0  0  0  0  0  0  0  0
    5.8068   -1.1390   -3.3735 H   0  0  0  0  0  0  0  0  0  0  0  0
    4.0414   -0.9845   -3.2524 H   0  0  0  0  0  0  0  0  0  0  0  0
    3.0675    1.4402   -3.1721 H   0  0  0  0  0  0  0  0  0  0  0  0
    3.4261    3.6930   -4.0824 H   0  0  0  0  0  0  0  0  0  0  0  0
    5.6608    4.4015   -4.8783 H   0  0  0  0  0  0  0  0  0  0  0  0
    7.5546    2.8318   -4.7526 H   0  0  0  0  0  0  0  0  0  0  0  0
    7.2127    0.6050   -3.8547 H   0  0  0  0  0  0  0  0  0  0  0  0
    7.3467   -2.2099   -1.2482 H   0  0  0  0  0  0  0  0  0  0  0  0
    9.0483    0.2884   -0.9401 H   0  0  0  0  0  0  0  0  0  0  0  0
   10.4668   -1.0282    0.6605 H   0  0  0  0  0  0  0  0  0  0  0  0
    9.1645   -2.2533    0.7233 H   0  0  0  0  0  0  0  0  0  0  0  0
    7.0372   -1.8229    1.9240 H   0  0  0  0  0  0  0  0  0  0  0  0
    5.9660   -0.4289    3.6465 H   0  0  0  0  0  0  0  0  0  0  0  0
    6.8541    1.6913    4.3088 H   0  0  0  0  0  0  0  0  0  0  0  0
    8.9118    2.5367    3.2587 H   0  0  0  0  0  0  0  0  0  0  0  0
   10.0281    1.1934    1.5435 H   0  0  0  0  0  0  0  0  0  0  0  0
   11.8306   -1.3749   -1.0311 H   0  0  0  0  0  0  0  0  0  0  0  0
  1  2  1  0
  2  3  2  0
  2  4  2  0
  2  5  1  0
  5  6  2  0
  6  7  1  0
  7  8  2  0
  8  9  1  0
  9 10  2  0
  8 11  1  0
 11 12  2  0
 11 13  1  0
 13 14  1  0
 14 15  1  0
 15 16  1  0
 16 17  2  0
 17 18  1  0
 18 19  2  0
 19 20  1  0
 20 21  2  0
 14 22  1  0
 22 23  2  0
 22 24  1  0
 24 25  1  0
 25 26  1  0
 26 27  1  0
 27 28  2  0
 28 29  1  0
 29 30  2  0
 30 31  1  0
 31 32  2  0
 25 33  1  0
 33 34  2  0
 33 35  1  0
 35 36  1  0
 36 37  1  0
 37 38  1  0
 38 39  2  0
 39 40  1  0
 40 41  2  0
 41 42  1  0
 41 43  1  0
 43 44  2  0
 36 45  1  0
 45 46  2  0
 45 47  1  0
 47 48  1  0
 48 49  1  0
 49 50  1  0
 50 51  2  0
 51 52  1  0
 52 53  2  0
 53 54  1  0
 54 55  2  0
 48 56  1  0
 56 57  2  0
 56 58  1  0
 58 59  1  0
 59 60  1  0
 60 61  1  0
 61 62  2  0
 62 63  1  0
 63 64  2  0
 64 65  1  0
 65 66  2  0
 59 67  1  0
 67 68  1  0
 67 69  2  0
 10  5  1  0
 21 16  1  0
 32 27  1  0
 44 38  1  0
 55 50  1  0
 66 61  1  0
  1 70  1  0
  1 71  1  0
  6 72  1  0
  7 73  1  0
  9 74  1  0
 10 75  1  0
 13 76  1  0
 14 77  1  1
 15 78  1  0
 15 79  1  0
 17 80  1  0
 18 81  1  0
 19 82  1  0
 20 83  1  0
 21 84  1  0
 24 85  1  0
 25 86  1  1
 26 87  1  0
 26 88  1  0
 28 89  1  0
 29 90  1  0
 30 91  1  0
 31 92  1  0
 32 93  1  0
 35 94  1  0
 36 95  1  6
 37 96  1  0
 37 97  1  0
 39 98  1  0
 40 99  1  0
 42100  1  0
 43101  1  0
 44102  1  0
 47103  1  0
 48104  1  1
 49105  1  0
 49106  1  0
 51107  1  0
 52108  1  0
 53109  1  0
 54110  1  0
 55111  1  0
 58112  1  0
 59113  1  1
 60114  1  0
 60115  1  0
 62116  1  0
 63117  1  0
 64118  1  0
 65119  1  0
 66120  1  0
 68121  1  0
M  END
$$$$
[H]OC1(C(F)(F)F)c2c([H])c([H])c([H])c([H])c2-c2c(-c3c([H])nn(C([H])([H])[H])c3[H])c([H])c(OC([H])([H])[H])c([H])c21
     RDKit          3D

 41 44  0  0  0  0  0  0  0  0999 V2000
    2.7074    4.1488    0.3424 C   0  0  0  0  0  0  0  0  0  0  0  0
    1.2994    4.0804    0.2931 O   0  0  0  0  0  0  0  0  0  0  0  0
    0.7136    2.8022    0.2834 C   0  0  0  0  0  0  0  0  0  0  0  0
   -0.6557    2.6610    0.2361 C   0  0  0  0  0  0  0  0  0  0  0  0
   -1.2263    1.3999    0.2277 C   0  0  0  0  0  0  0  0  0  0  0  0
   -0.4386    0.2517    0.2667 C   0  0  0  0  0  0  0  0  0  0  0  0
   -1.3713   -0.8788    0.2696 C   0  0  0  0  0  0  0  0  0  0  0  0
   -1.1325   -2.2354    0.3228 C   0  0  0  0  0  0  0  0  0  0  0  0
   -2.2332   -3.1007    0.3326 C   0  0  0  0  0  0  0  0  0  0  0  0
   -3.5292   -2.6606    0.2924 C   0  0  0  0  0  0  0  0  0  0  0  0
   -3.7688   -1.3119    0.2401 C   0  0  0  0  0  0  0  0  0  0  0  0
   -2.6750   -0.4314    0.2294 C   0  0  0  0  0  0  0  0  0  0  0  0
   -2.6427    1.0418    0.1777 C   0  0  0  0  0  0  0  0  0  0  0  0
   -3.3698    1.5399    1.2497 O   0  0  0  0  0  0  0  0  0  0  0  0
   -3.2110    1.5229   -1.1482 C   0  0  0  0  0  0  0  0  0  0  0  0
   -4.5486    1.1733   -1.1718 F   0  0  0  0  0  0  0  0  0  0  0  0
   -3.0952    2.8834   -1.2880 F   0  0  0  0  0  0  0  0  0  0  0  0
   -2.6044    0.8866   -2.1959 F   0  0  0  0  0  0  0  0  0  0  0  0
    0.9319    0.3603    0.3123 C   0  0  0  0  0  0  0  0  0  0  0  0
    1.4568    1.6598    0.3196 C   0  0  0  0  0  0  0  0  0  0  0  0
    1.8304   -0.7814    0.3000 C   0  0  0  0  0  0  0  0  0  0  0  0
    2.4739   -1.3515    1.3703 C   0  0  0  0  0  0  0  0  0  0  0  0
    3.2356   -2.3186    0.8842 N   0  0  0  0  0  0  0  0  0  0  0  0
    3.1489   -2.4359   -0.4250 N   0  0  0  0  0  0  0  0  0  0  0  0
    3.8434   -3.3888   -1.2950 C   0  0  0  0  0  0  0  0  0  0  0  0
    2.2728   -1.4822   -0.8171 C   0  0  0  0  0  0  0  0  0  0  0  0
    3.0679    3.6015    1.2137 H   0  0  0  0  0  0  0  0  0  0  0  0
    3.1336    3.7237   -0.5951 H   0  0  0  0  0  0  0  0  0  0  0  0
    2.9702    5.2315    0.3736 H   0  0  0  0  0  0  0  0  0  0  0  0
   -1.2329    3.5787    0.2072 H   0  0  0  0  0  0  0  0  0  0  0  0
   -0.1510   -2.6487    0.3691 H   0  0  0  0  0  0  0  0  0  0  0  0
   -2.0446   -4.1782    0.3743 H   0  0  0  0  0  0  0  0  0  0  0  0
   -4.3659   -3.3676    0.3015 H   0  0  0  0  0  0  0  0  0  0  0  0
   -4.7607   -0.8892    0.2066 H   0  0  0  0  0  0  0  0  0  0  0  0
   -3.0589    2.4289    1.5505 H   0  0  0  0  0  0  0  0  0  0  0  0
    2.5301    1.7317    0.3569 H   0  0  0  0  0  0  0  0  0  0  0  0
    2.3347   -1.0170    2.4052 H   0  0  0  0  0  0  0  0  0  0  0  0
    4.0683   -4.3229   -0.7062 H   0  0  0  0  0  0  0  0  0  0  0  0
    4.8321   -2.9872   -1.5991 H   0  0  0  0  0  0  0  0  0  0  0  0
    3.2745   -3.5921   -2.2094 H   0  0  0  0  0  0  0  0  0  0  0  0
    1.9909   -1.3277   -1.8580 H   0  0  0  0  0  0  0  0  0  0  0  0
  1  2  1  0
  2  3  1  0
  3  4  2  0
  4  5  1  0
  5  6  2  0
  6  7  1  0
  7  8  2  0
  8  9  1  0
  9 10  2  0
 10 11  1  0
 11 12  2  0
 12 13  1  0
 13 14  1  0
 13 15  1  0
 15 16  1  0
 15 17  1  0
 15 18  1  0
  6 19  1  0
 19 20  2  0
 19 21  1  0
 21 22  1  0
 22 23  2  0
 23 24  1  0
 24 25  1  0
 24 26  1  0
 20  3  1  0
 26 21  2  0
 13  5  1  0
 12  7  1  0
  1 27  1  0
  1 28  1  0
  1 29  1  0
  4 30  1  0
  8 31  1  0
  9 32  1  0
 10 33  1  0
 11 34  1  0
 14 35  1  0
 20 36  1  0
 22 37  1  0
 25 38  1  0
 25 39  1  0
 25 40  1  0
 26 41  1  0
M  END
$$$$
[H]c1c([H])c([H])c2c(c1[H])c1c3c(c4c5c([H])c([H])c([H])c([H])c5n5c4c1n2[C@@]1(C([H])([H])[H])O[C@]5([H])C([H])([H])[C@@]([H])(N(C([H])([H])[H])C([H])([H])[H])[C@@]1([H])OC([H])([H])[H])C(=O)N([H])C3([H])[H]
     RDKit          3D

 64 71  0  0  0  0  0  0  0  0999 V2000
   -2.6590   -2.1737   -1.5272 C   0  0  0  0  0  0  0  0  0  0  0  0
   -1.9703   -1.1410   -0.9458 O   0  0  0  0  0  0  0  0  0  0  0  0
   -2.1814   -1.0043    0.4140 C   0  0  2  0  0  0  0  0  0  0  0  0
   -2.9478    0.3303    0.5502 C   0  0  1  0  0  0  0  0  0  0  0  0
   -2.0420    1.3339   -0.1600 C   0  0  0  0  0  0  0  0  0  0  0  0
   -0.8962    1.5047    0.8033 C   0  0  1  0  0  0  0  0  0  0  0  0
   -0.8082    0.4843    1.7165 O   0  0  0  0  0  0  0  0  0  0  0  0
   -0.9398   -0.8232    1.2124 C   0  0  1  0  0  0  0  0  0  0  0  0
   -1.1918   -1.6082    2.5360 C   0  0  0  0  0  0  0  0  0  0  0  0
    0.3173   -1.2346    0.6438 N   0  0  0  0  0  0  0  0  0  0  0  0
    0.7940   -2.5121    0.5802 C   0  0  0  0  0  0  0  0  0  0  0  0
    0.2507   -3.7287    0.8793 C   0  0  0  0  0  0  0  0  0  0  0  0
    0.9499   -4.9017    0.7045 C   0  0  0  0  0  0  0  0  0  0  0  0
    2.2299   -4.8805    0.2179 C   0  0  0  0  0  0  0  0  0  0  0  0
    2.8165   -3.6610   -0.0985 C   0  0  0  0  0  0  0  0  0  0  0  0
    2.0893   -2.5236    0.0887 C   0  0  0  0  0  0  0  0  0  0  0  0
    2.4248   -1.2051   -0.1670 C   0  0  0  0  0  0  0  0  0  0  0  0
    3.5537   -0.5935   -0.6784 C   0  0  0  0  0  0  0  0  0  0  0  0
    4.8333   -1.2334   -1.0826 C   0  0  0  0  0  0  0  0  0  0  0  0
    5.6646   -0.1306   -1.4644 N   0  0  0  0  0  0  0  0  0  0  0  0
    4.9321    1.1133   -1.3667 C   0  0  0  0  0  0  0  0  0  0  0  0
    5.4015    2.2302   -1.6659 O   0  0  0  0  0  0  0  0  0  0  0  0
    3.6222    0.7869   -0.8735 C   0  0  0  0  0  0  0  0  0  0  0  0
    2.4859    1.5156   -0.5246 C   0  0  0  0  0  0  0  0  0  0  0  0
    2.1866    2.8533   -0.6180 C   0  0  0  0  0  0  0  0  0  0  0  0
    2.8608    3.9553   -1.0563 C   0  0  0  0  0  0  0  0  0  0  0  0
    2.2063    5.1911   -1.0149 C   0  0  0  0  0  0  0  0  0  0  0  0
    0.9221    5.3086   -0.5475 C   0  0  0  0  0  0  0  0  0  0  0  0
    0.2481    4.1966   -0.1074 C   0  0  0  0  0  0  0  0  0  0  0  0
    0.8790    2.9756   -0.1435 C   0  0  0  0  0  0  0  0  0  0  0  0
    0.3890    1.8047    0.2235 N   0  0  0  0  0  0  0  0  0  0  0  0
    1.3494    0.8965   -0.0023 C   0  0  0  0  0  0  0  0  0  0  0  0
    1.3511   -0.4615    0.1675 C   0  0  0  0  0  0  0  0  0  0  0  0
   -4.2930    0.3446    0.2913 N   0  0  0  0  0  0  0  0  0  0  0  0
   -5.0436    0.7473    1.4641 C   0  0  0  0  0  0  0  0  0  0  0  0
   -4.8534    0.8849   -0.8712 C   0  0  0  0  0  0  0  0  0  0  0  0
   -3.7640   -2.0933   -1.3953 H   0  0  0  0  0  0  0  0  0  0  0  0
   -2.3627   -3.1828   -1.2036 H   0  0  0  0  0  0  0  0  0  0  0  0
   -2.4293   -2.1334   -2.6403 H   0  0  0  0  0  0  0  0  0  0  0  0
   -2.8470   -1.8327    0.7467 H   0  0  0  0  0  0  0  0  0  0  0  0
   -2.7864    0.5602    1.6769 H   0  0  0  0  0  0  0  0  0  0  0  0
   -2.6243    2.2673   -0.3305 H   0  0  0  0  0  0  0  0  0  0  0  0
   -1.6648    0.8808   -1.0826 H   0  0  0  0  0  0  0  0  0  0  0  0
   -1.1706    2.4178    1.4174 H   0  0  0  0  0  0  0  0  0  0  0  0
   -2.0795   -2.2416    2.4741 H   0  0  0  0  0  0  0  0  0  0  0  0
   -1.4293   -0.8889    3.3785 H   0  0  0  0  0  0  0  0  0  0  0  0
   -0.2629   -2.0992    2.8768 H   0  0  0  0  0  0  0  0  0  0  0  0
   -0.7835   -3.7567    1.2465 H   0  0  0  0  0  0  0  0  0  0  0  0
    0.4741   -5.8477    0.9538 H   0  0  0  0  0  0  0  0  0  0  0  0
    2.8283   -5.7697    0.0609 H   0  0  0  0  0  0  0  0  0  0  0  0
    3.8149   -3.6015   -0.4782 H   0  0  0  0  0  0  0  0  0  0  0  0
    5.2621   -1.7400   -0.1702 H   0  0  0  0  0  0  0  0  0  0  0  0
    4.7119   -1.9290   -1.9281 H   0  0  0  0  0  0  0  0  0  0  0  0
    6.6689   -0.1370   -1.7801 H   0  0  0  0  0  0  0  0  0  0  0  0
    3.8511    3.9738   -1.4434 H   0  0  0  0  0  0  0  0  0  0  0  0
    2.7407    6.0639   -1.3629 H   0  0  0  0  0  0  0  0  0  0  0  0
    0.4723    6.2896   -0.5402 H   0  0  0  0  0  0  0  0  0  0  0  0
   -0.7840    4.2633    0.2726 H   0  0  0  0  0  0  0  0  0  0  0  0
   -4.6624    0.2928    2.4020 H   0  0  0  0  0  0  0  0  0  0  0  0
   -4.7498    1.8498    1.5960 H   0  0  0  0  0  0  0  0  0  0  0  0
   -6.1311    0.7345    1.3414 H   0  0  0  0  0  0  0  0  0  0  0  0
   -4.1705    0.9920   -1.7347 H   0  0  0  0  0  0  0  0  0  0  0  0
   -5.6628    0.1710   -1.2194 H   0  0  0  0  0  0  0  0  0  0  0  0
   -5.3911    1.8557   -0.7112 H   0  0  0  0  0  0  0  0  0  0  0  0
  1  2  1  0
  2  3  1  0
  3  4  1  0
  4  5  1  0
  5  6  1  0
  6  7  1  0
  7  8  1  0
  8  9  1  1
  8 10  1  0
 10 11  1  0
 11 12  2  0
 12 13  1  0
 13 14  2  0
 14 15  1  0
 15 16  2  0
 16 17  1  0
 17 18  2  0
 18 19  1  0
 19 20  1  0
 20 21  1  0
 21 22  2  0
 21 23  1  0
 23 24  2  0
 24 25  1  0
 25 26  2  0
 26 27  1  0
 27 28  2  0
 28 29  1  0
 29 30  2  0
 30 31  1  0
 31 32  1  0
 32 33  2  0
  4 34  1  0
 34 35  1  0
 34 36  1  0
  8  3  1  0
 33 10  1  0
 31  6  1  0
 16 11  1  0
 33 17  1  0
 23 18  1  0
 32 24  1  0
 30 25  1  0
  1 37  1  0
  1 38  1  0
  1 39  1  0
  3 40  1  1
  4 41  1  1
  5 42  1  0
  5 43  1  0
  6 44  1  1
  9 45  1  0
  9 46  1  0
  9 47  1  0
 12 48  1  0
 13 49  1  0
 14 50  1  0
 15 51  1  0
 19 52  1  0
 19 53  1  0
 20 54  1  0
 26 55  1  0
 27 56  1  0
 28 57  1  0
 29 58  1  0
 35 59  1  0
 35 60  1  0
 35 61  1  0
 36 62  1  0
 36 63  1  0
 36 64  1  0
M  END
$$$$
[H]OC(=O)C([H])([H])C([H])(C(=O)C([H])([H])F)N([H])C(=O)[C@@]([H])(N([H])C(=O)[C@@]([H])(N([H])C(=O)OC([H])([H])c1c([H])c([H])c([H])c([H])c1[H])C([H])(C([H])([H])[H])C([H])([H])[H])C([H])([H])[H]
     RDKit          3D

 60 60  0  0  0  0  0  0  0  0999 V2000
    1.5899   -0.1192   -3.0001 C   0  0  0  0  0  0  0  0  0  0  0  0
    0.5406   -0.1950   -1.9029 C   0  0  0  0  0  0  0  0  0  0  0  0
   -0.0120   -1.5665   -1.7410 C   0  0  0  0  0  0  0  0  0  0  0  0
    1.0778    0.4512   -0.6755 C   0  0  2  0  0  0  0  0  0  0  0  0
    2.2624   -0.2365   -0.2447 N   0  0  0  0  0  0  0  0  0  0  0  0
    3.4725    0.4667   -0.0932 C   0  0  0  0  0  0  0  0  0  0  0  0
    3.4544    1.7206   -0.3566 O   0  0  0  0  0  0  0  0  0  0  0  0
    4.6528   -0.1303    0.3179 O   0  0  0  0  0  0  0  0  0  0  0  0
    5.7756    0.6965    0.4266 C   0  0  0  0  0  0  0  0  0  0  0  0
    7.0108    0.0409    0.8261 C   0  0  0  0  0  0  0  0  0  0  0  0
    8.0310    0.7917    1.3686 C   0  0  0  0  0  0  0  0  0  0  0  0
    9.2436    0.2676    1.7625 C   0  0  0  0  0  0  0  0  0  0  0  0
    9.4909   -1.0763    1.6235 C   0  0  0  0  0  0  0  0  0  0  0  0
    8.4872   -1.8448    1.0839 C   0  0  0  0  0  0  0  0  0  0  0  0
    7.2714   -1.3318    0.6881 C   0  0  0  0  0  0  0  0  0  0  0  0
    0.0535    0.6153    0.3545 C   0  0  0  0  0  0  0  0  0  0  0  0
    0.2201    0.2534    1.5589 O   0  0  0  0  0  0  0  0  0  0  0  0
   -1.1876    1.1993    0.0434 N   0  0  0  0  0  0  0  0  0  0  0  0
   -2.2615    1.4114    1.0050 C   0  0  1  0  0  0  0  0  0  0  0  0
   -2.8346    2.7730    0.9826 C   0  0  0  0  0  0  0  0  0  0  0  0
   -3.2900    0.3988    0.6997 C   0  0  0  0  0  0  0  0  0  0  0  0
   -2.9333   -0.7715    0.4464 O   0  0  0  0  0  0  0  0  0  0  0  0
   -4.6528    0.7257    0.6876 N   0  0  0  0  0  0  0  0  0  0  0  0
   -5.6655   -0.3109    0.4020 C   0  0  0  0  0  0  0  0  0  0  0  0
   -6.9588    0.2532    0.8312 C   0  0  0  0  0  0  0  0  0  0  0  0
   -8.1464   -0.5956    0.6753 C   0  0  0  0  0  0  0  0  0  0  0  0
   -8.3452   -1.6755    1.5148 O   0  0  0  0  0  0  0  0  0  0  0  0
   -8.9893   -0.3552   -0.2114 O   0  0  0  0  0  0  0  0  0  0  0  0
   -5.5339   -0.6248   -1.0409 C   0  0  0  0  0  0  0  0  0  0  0  0
   -4.7584   -0.0076   -1.7367 O   0  0  0  0  0  0  0  0  0  0  0  0
   -6.3329   -1.6910   -1.6747 C   0  0  0  0  0  0  0  0  0  0  0  0
   -7.0260   -1.2351   -2.7878 F   0  0  0  0  0  0  0  0  0  0  0  0
    1.1002   -0.1969   -4.0022 H   0  0  0  0  0  0  0  0  0  0  0  0
    2.0618    0.8880   -3.0007 H   0  0  0  0  0  0  0  0  0  0  0  0
    2.3713   -0.8663   -2.8639 H   0  0  0  0  0  0  0  0  0  0  0  0
   -0.3098    0.4527   -2.2553 H   0  0  0  0  0  0  0  0  0  0  0  0
    0.2969   -2.1089   -0.8296 H   0  0  0  0  0  0  0  0  0  0  0  0
    0.3683   -2.1657   -2.6109 H   0  0  0  0  0  0  0  0  0  0  0  0
   -1.1210   -1.5770   -1.7899 H   0  0  0  0  0  0  0  0  0  0  0  0
    1.3539    1.5197   -0.9767 H   0  0  0  0  0  0  0  0  0  0  0  0
    2.2563   -1.2807   -0.0333 H   0  0  0  0  0  0  0  0  0  0  0  0
    5.9504    1.1333   -0.5940 H   0  0  0  0  0  0  0  0  0  0  0  0
    5.5342    1.5658    1.0703 H   0  0  0  0  0  0  0  0  0  0  0  0
    7.9107    1.8779    1.5097 H   0  0  0  0  0  0  0  0  0  0  0  0
    9.9958    0.9365    2.1851 H   0  0  0  0  0  0  0  0  0  0  0  0
   10.4378   -1.4522    1.9376 H   0  0  0  0  0  0  0  0  0  0  0  0
    8.6960   -2.9037    0.9837 H   0  0  0  0  0  0  0  0  0  0  0  0
    6.4899   -1.9378    0.2655 H   0  0  0  0  0  0  0  0  0  0  0  0
   -1.4134    1.5207   -0.9419 H   0  0  0  0  0  0  0  0  0  0  0  0
   -1.8364    1.1816    2.0268 H   0  0  0  0  0  0  0  0  0  0  0  0
   -2.0424    3.5505    1.1110 H   0  0  0  0  0  0  0  0  0  0  0  0
   -3.5428    2.8754    1.8387 H   0  0  0  0  0  0  0  0  0  0  0  0
   -3.4133    2.9709    0.0703 H   0  0  0  0  0  0  0  0  0  0  0  0
   -4.9308    1.7003    0.8837 H   0  0  0  0  0  0  0  0  0  0  0  0
   -5.4101   -1.2395    0.9795 H   0  0  0  0  0  0  0  0  0  0  0  0
   -6.8730    0.5148    1.9142 H   0  0  0  0  0  0  0  0  0  0  0  0
   -7.1595    1.2061    0.2427 H   0  0  0  0  0  0  0  0  0  0  0  0
   -7.8629   -1.7472    2.3905 H   0  0  0  0  0  0  0  0  0  0  0  0
   -6.9877   -2.2467   -1.0025 H   0  0  0  0  0  0  0  0  0  0  0  0
   -5.6268   -2.4695   -2.1052 H   0  0  0  0  0  0  0  0  0  0  0  0
  1  2  1  0
  2  3  1  0
  2  4  1  0
  4  5  1  0
  5  6  1  0
  6  7  2  0
  6  8  1  0
  8  9  1  0
  9 10  1  0
 10 11  2  0
 11 12  1  0
 12 13  2  0
 13 14  1  0
 14 15  2  0
  4 16  1  0
 16 17  2  0
 16 18  1  0
 18 19  1  0
 19 20  1  0
 19 21  1  0
 21 22  2  0
 21 23  1  0
 23 24  1  0
 24 25  1  0
 25 26  1  0
 26 27  1  0
 26 28  2  0
 24 29  1  0
 29 30  2  0
 29 31  1  0
 31 32  1  0
 15 10  1  0
  1 33  1  0
  1 34  1  0
  1 35  1  0
  2 36  1  0
  3 37  1  0
  3 38  1  0
  3 39  1  0
  4 40  1  6
  5 41  1  0
  9 42  1  0
  9 43  1  0
 11 44  1  0
 12 45  1  0
 13 46  1  0
 14 47  1  0
 15 48  1  0
 18 49  1  0
 19 50  1  1
 20 51  1  0
 20 52  1  0
 20 53  1  0
 23 54  1  0
 24 55  1  0
 25 56  1  0
 25 57  1  0
 27 58  1  0
 31 59  1  0
 31 60  1  0
M  END
$$$$
[H]c1nc2c([H])c(OC([H])([H])C([H])([H])C([H])([H])N3C([H])([H])C([H])([H])C([H])([H])C([H])([H])C3([H])[H])c(OC([H])([H])[H])c([H])c2c(Oc2c([H])c([H])c(N([H])C(=O)C3(C(=O)N([H])c4c([H])c([H])c(F)c([H])c4[H])C([H])([H])C3([H])[H])c([H])c2F)c1[H]
     RDKit          3D

 82 87  0  0  0  0  0  0  0  0999 V2000
   -1.9209   -1.3333    3.0451 C   0  0  0  0  0  0  0  0  0  0  0  0
   -2.9832   -1.7818    2.2281 O   0  0  0  0  0  0  0  0  0  0  0  0
   -2.8786   -1.6448    0.8580 C   0  0  0  0  0  0  0  0  0  0  0  0
   -1.7316   -1.0680    0.2922 C   0  0  0  0  0  0  0  0  0  0  0  0
   -1.6665   -0.9491   -1.0819 C   0  0  0  0  0  0  0  0  0  0  0  0
   -0.4802   -0.3771   -1.6175 C   0  0  0  0  0  0  0  0  0  0  0  0
    0.4285   -0.0147   -0.7289 O   0  0  0  0  0  0  0  0  0  0  0  0
    1.6944    0.3930   -0.6360 C   0  0  0  0  0  0  0  0  0  0  0  0
    2.6188    0.4301   -1.6541 C   0  0  0  0  0  0  0  0  0  0  0  0
    3.9313    0.8745   -1.4820 C   0  0  0  0  0  0  0  0  0  0  0  0
    4.3763    1.3085   -0.2501 C   0  0  0  0  0  0  0  0  0  0  0  0
    5.7351    1.7029   -0.0852 N   0  0  0  0  0  0  0  0  0  0  0  0
    6.2268    2.6374    0.8165 C   0  0  0  0  0  0  0  0  0  0  0  0
    5.4560    3.2770    1.5746 O   0  0  0  0  0  0  0  0  0  0  0  0
    7.6644    2.9391    0.9238 C   0  0  0  0  0  0  0  0  0  0  0  0
    8.1038    4.3298    0.5798 C   0  0  0  0  0  0  0  0  0  0  0  0
    8.0915    3.9269    1.9833 C   0  0  0  0  0  0  0  0  0  0  0  0
    8.6209    1.8678    0.5623 C   0  0  0  0  0  0  0  0  0  0  0  0
    9.7692    2.2424    0.1832 O   0  0  0  0  0  0  0  0  0  0  0  0
    8.2825    0.5106    0.6434 N   0  0  0  0  0  0  0  0  0  0  0  0
    9.0724   -0.5986    0.3022 C   0  0  0  0  0  0  0  0  0  0  0  0
   10.2084   -0.5630   -0.4349 C   0  0  0  0  0  0  0  0  0  0  0  0
   10.9465   -1.7016   -0.7351 C   0  0  0  0  0  0  0  0  0  0  0  0
   10.4906   -2.9056   -0.2570 C   0  0  0  0  0  0  0  0  0  0  0  0
   11.1446   -4.0908   -0.4983 F   0  0  0  0  0  0  0  0  0  0  0  0
    9.3451   -2.9715    0.4910 C   0  0  0  0  0  0  0  0  0  0  0  0
    8.6479   -1.8328    0.7652 C   0  0  0  0  0  0  0  0  0  0  0  0
    3.4672    1.2778    0.7745 C   0  0  0  0  0  0  0  0  0  0  0  0
    2.1764    0.8442    0.6174 C   0  0  0  0  0  0  0  0  0  0  0  0
    1.3271    0.8450    1.6680 F   0  0  0  0  0  0  0  0  0  0  0  0
   -0.4426   -0.2893   -2.9832 C   0  0  0  0  0  0  0  0  0  0  0  0
   -1.5048   -0.7395   -3.7466 C   0  0  0  0  0  0  0  0  0  0  0  0
   -2.6043   -1.2729   -3.2053 N   0  0  0  0  0  0  0  0  0  0  0  0
   -2.6929   -1.3815   -1.8816 C   0  0  0  0  0  0  0  0  0  0  0  0
   -3.8279   -1.9550   -1.2977 C   0  0  0  0  0  0  0  0  0  0  0  0
   -3.9356   -2.0931    0.0657 C   0  0  0  0  0  0  0  0  0  0  0  0
   -4.9932   -2.6329    0.7070 O   0  0  0  0  0  0  0  0  0  0  0  0
   -6.1911   -3.1449    0.2709 C   0  0  0  0  0  0  0  0  0  0  0  0
   -7.1260   -2.1894   -0.4224 C   0  0  0  0  0  0  0  0  0  0  0  0
   -7.4688   -1.0934    0.5689 C   0  0  0  0  0  0  0  0  0  0  0  0
   -8.3291   -0.1089    0.0669 N   0  0  0  0  0  0  0  0  0  0  0  0
   -9.6473   -0.4624   -0.2620 C   0  0  0  0  0  0  0  0  0  0  0  0
  -10.5141    0.6511   -0.7176 C   0  0  0  0  0  0  0  0  0  0  0  0
  -10.0079    2.0229   -0.4173 C   0  0  0  0  0  0  0  0  0  0  0  0
   -8.5212    2.1759   -0.4928 C   0  0  0  0  0  0  0  0  0  0  0  0
   -7.8145    0.8762   -0.8225 C   0  0  0  0  0  0  0  0  0  0  0  0
   -0.9571   -1.8306    2.8366 H   0  0  0  0  0  0  0  0  0  0  0  0
   -2.2135   -1.4052    4.1324 H   0  0  0  0  0  0  0  0  0  0  0  0
   -1.7526   -0.2336    2.8951 H   0  0  0  0  0  0  0  0  0  0  0  0
   -0.9452   -0.7395    0.9402 H   0  0  0  0  0  0  0  0  0  0  0  0
    2.3175    0.0736   -2.6345 H   0  0  0  0  0  0  0  0  0  0  0  0
    4.6112    0.8751   -2.3332 H   0  0  0  0  0  0  0  0  0  0  0  0
    6.4199    1.2451   -0.7758 H   0  0  0  0  0  0  0  0  0  0  0  0
    9.0682    4.4257    0.0505 H   0  0  0  0  0  0  0  0  0  0  0  0
    7.3407    5.0399    0.2003 H   0  0  0  0  0  0  0  0  0  0  0  0
    7.3090    4.4067    2.6322 H   0  0  0  0  0  0  0  0  0  0  0  0
    8.9944    3.6337    2.5414 H   0  0  0  0  0  0  0  0  0  0  0  0
    7.3081    0.3234    1.0716 H   0  0  0  0  0  0  0  0  0  0  0  0
   10.5935    0.3593   -0.8357 H   0  0  0  0  0  0  0  0  0  0  0  0
   11.8477   -1.6521   -1.3218 H   0  0  0  0  0  0  0  0  0  0  0  0
    8.9858   -3.9396    0.8697 H   0  0  0  0  0  0  0  0  0  0  0  0
    7.7562   -1.9196    1.3508 H   0  0  0  0  0  0  0  0  0  0  0  0
    3.8168    1.6119    1.7731 H   0  0  0  0  0  0  0  0  0  0  0  0
    0.4064    0.1533   -3.4882 H   0  0  0  0  0  0  0  0  0  0  0  0
   -1.4365   -0.6527   -4.8218 H   0  0  0  0  0  0  0  0  0  0  0  0
   -4.5800   -2.2798   -1.9924 H   0  0  0  0  0  0  0  0  0  0  0  0
   -6.7356   -3.7231    1.0795 H   0  0  0  0  0  0  0  0  0  0  0  0
   -5.9359   -3.9712   -0.4667 H   0  0  0  0  0  0  0  0  0  0  0  0
   -8.0475   -2.8031   -0.6508 H   0  0  0  0  0  0  0  0  0  0  0  0
   -6.6975   -1.7771   -1.3246 H   0  0  0  0  0  0  0  0  0  0  0  0
   -6.4817   -0.5989    0.7986 H   0  0  0  0  0  0  0  0  0  0  0  0
   -7.8063   -1.5547    1.4933 H   0  0  0  0  0  0  0  0  0  0  0  0
   -9.6087   -1.2635   -1.0545 H   0  0  0  0  0  0  0  0  0  0  0  0
  -10.1067   -0.9890    0.6209 H   0  0  0  0  0  0  0  0  0  0  0  0
  -10.6583    0.5452   -1.8287 H   0  0  0  0  0  0  0  0  0  0  0  0
  -11.5245    0.5130   -0.2789 H   0  0  0  0  0  0  0  0  0  0  0  0
  -10.4700    2.7394   -1.1272 H   0  0  0  0  0  0  0  0  0  0  0  0
  -10.3387    2.3502    0.5933 H   0  0  0  0  0  0  0  0  0  0  0  0
   -8.2030    2.9114   -1.2614 H   0  0  0  0  0  0  0  0  0  0  0  0
   -8.0896    2.5269    0.4664 H   0  0  0  0  0  0  0  0  0  0  0  0
   -6.7254    1.0838   -0.6488 H   0  0  0  0  0  0  0  0  0  0  0  0
   -8.0046    0.5785   -1.8753 H   0  0  0  0  0  0  0  0  0  0  0  0
  1  2  1  0
  2  3  1  0
  3  4  2  0
  4  5  1  0
  5  6  2  0
  6  7  1  0
  7  8  1  0
  8  9  2  0
  9 10  1  0
 10 11  2  0
 11 12  1  0
 12 13  1  0
 13 14  2  0
 13 15  1  0
 15 16  1  0
 16 17  1  0
 15 18  1  0
 18 19  2  0
 18 20  1  0
 20 21  1  0
 21 22  2  0
 22 23  1  0
 23 24  2  0
 24 25  1  0
 24 26  1  0
 26 27  2  0
 11 28  1  0
 28 29  2  0
 29 30  1  0
  6 31  1  0
 31 32  2  0
 32 33  1  0
 33 34  2  0
 34 35  1  0
 35 36  2  0
 36 37  1  0
 37 38  1  0
 38 39  1  0
 39 40  1  0
 40 41  1  0
 41 42  1  0
 42 43  1  0
 43 44  1  0
 44 45  1  0
 45 46  1  0
 36  3  1  0
 46 41  1  0
 34  5  1  0
 29  8  1  0
 17 15  1  0
 27 21  1  0
  1 47  1  0
  1 48  1  0
  1 49  1  0
  4 50  1  0
  9 51  1  0
 10 52  1  0
 12 53  1  0
 16 54  1  0
 16 55  1  0
 17 56  1  0
 17 57  1  0
 20 58  1  0
 22 59  1  0
 23 60  1  0
 26 61  1  0
 27 62  1  0
 28 63  1  0
 31 64  1  0
 32 65  1  0
 35 66  1  0
 38 67  1  0
 38 68  1  0
 39 69  1  0
 39 70  1  0
 40 71  1  0
 40 72  1  0
 42 73  1  0
 42 74  1  0
 43 75  1  0
 43 76  1  0
 44 77  1  0
 44 78  1  0
 45 79  1  0
 45 80  1  0
 46 81  1  0
 46 82  1  0
M  END
$$$$
[H]c1c([H])c(C([H])([H])N2C([H])([H])C([H])([H])N(C([H])([H])C([H])([H])[H])C([H])([H])C2([H])[H])c(C(F)(F)F)c([H])c1C(=O)N([H])c1c([H])c([H])c(C([H])([H])[H])c(C(=O)N([H])[H])c1[H]
     RDKit          3D

 59 61  0  0  0  0  0  0  0  0999 V2000
   -7.1740    2.5842   -0.8273 C   0  0  0  0  0  0  0  0  0  0  0  0
   -7.2975    1.2996   -0.0464 C   0  0  0  0  0  0  0  0  0  0  0  0
   -6.0151    0.7549    0.2128 N   0  0  0  0  0  0  0  0  0  0  0  0
   -5.9944   -0.4588    0.9526 C   0  0  0  0  0  0  0  0  0  0  0  0
   -5.4346   -1.6232    0.2163 C   0  0  0  0  0  0  0  0  0  0  0  0
   -4.0751   -1.3032   -0.2892 N   0  0  0  0  0  0  0  0  0  0  0  0
   -3.2722   -0.8151    0.8266 C   0  0  0  0  0  0  0  0  0  0  0  0
   -1.8547   -0.8710    0.4919 C   0  0  0  0  0  0  0  0  0  0  0  0
   -1.4442   -1.4710   -0.6804 C   0  0  0  0  0  0  0  0  0  0  0  0
   -0.1019   -1.6026   -1.0194 C   0  0  0  0  0  0  0  0  0  0  0  0
    0.8743   -1.1255   -0.1704 C   0  0  0  0  0  0  0  0  0  0  0  0
    0.4563   -0.5375    0.9818 C   0  0  0  0  0  0  0  0  0  0  0  0
   -0.8641   -0.3876    1.3534 C   0  0  0  0  0  0  0  0  0  0  0  0
   -1.2337    0.2628    2.6150 C   0  0  0  0  0  0  0  0  0  0  0  0
   -1.9950    1.3894    2.4916 F   0  0  0  0  0  0  0  0  0  0  0  0
   -1.8074   -0.6473    3.5157 F   0  0  0  0  0  0  0  0  0  0  0  0
   -0.0541    0.6690    3.2578 F   0  0  0  0  0  0  0  0  0  0  0  0
    2.2879   -1.2956   -0.5685 C   0  0  0  0  0  0  0  0  0  0  0  0
    2.5491   -2.1501   -1.4200 O   0  0  0  0  0  0  0  0  0  0  0  0
    3.2560   -0.4945    0.0250 N   0  0  0  0  0  0  0  0  0  0  0  0
    4.6705   -0.4963   -0.2030 C   0  0  0  0  0  0  0  0  0  0  0  0
    5.3361   -1.5002   -0.8609 C   0  0  0  0  0  0  0  0  0  0  0  0
    6.7124   -1.4154   -1.0593 C   0  0  0  0  0  0  0  0  0  0  0  0
    7.4686   -0.3369   -0.6127 C   0  0  0  0  0  0  0  0  0  0  0  0
    8.9307   -0.3027   -0.8555 C   0  0  0  0  0  0  0  0  0  0  0  0
    6.8170    0.6698    0.0449 C   0  0  0  0  0  0  0  0  0  0  0  0
    5.4296    0.5668    0.2350 C   0  0  0  0  0  0  0  0  0  0  0  0
    7.4844    1.8453    0.5638 C   0  0  0  0  0  0  0  0  0  0  0  0
    8.8674    2.0457    0.4539 N   0  0  0  0  0  0  0  0  0  0  0  0
    6.7865    2.7434    1.1493 O   0  0  0  0  0  0  0  0  0  0  0  0
   -4.2563   -0.2081   -1.2653 C   0  0  0  0  0  0  0  0  0  0  0  0
   -5.0049    0.9589   -0.7277 C   0  0  0  0  0  0  0  0  0  0  0  0
   -8.0029    3.2980   -0.5512 H   0  0  0  0  0  0  0  0  0  0  0  0
   -7.2813    2.3909   -1.9065 H   0  0  0  0  0  0  0  0  0  0  0  0
   -6.2394    3.1162   -0.5625 H   0  0  0  0  0  0  0  0  0  0  0  0
   -8.0015    0.5942   -0.5339 H   0  0  0  0  0  0  0  0  0  0  0  0
   -7.7772    1.5633    0.9378 H   0  0  0  0  0  0  0  0  0  0  0  0
   -5.4270   -0.2647    1.9077 H   0  0  0  0  0  0  0  0  0  0  0  0
   -7.0275   -0.7058    1.2700 H   0  0  0  0  0  0  0  0  0  0  0  0
   -5.2880   -2.4768    0.9088 H   0  0  0  0  0  0  0  0  0  0  0  0
   -6.0633   -1.8815   -0.6351 H   0  0  0  0  0  0  0  0  0  0  0  0
   -3.5795    0.2561    1.0018 H   0  0  0  0  0  0  0  0  0  0  0  0
   -3.5736   -1.4128    1.7066 H   0  0  0  0  0  0  0  0  0  0  0  0
   -2.2019   -1.8782   -1.3616 H   0  0  0  0  0  0  0  0  0  0  0  0
    0.1746   -2.0792   -1.9487 H   0  0  0  0  0  0  0  0  0  0  0  0
    1.2238   -0.1583    1.6704 H   0  0  0  0  0  0  0  0  0  0  0  0
    2.9231    0.2129    0.7373 H   0  0  0  0  0  0  0  0  0  0  0  0
    4.8054   -2.3693   -1.2224 H   0  0  0  0  0  0  0  0  0  0  0  0
    7.2238   -2.2032   -1.5734 H   0  0  0  0  0  0  0  0  0  0  0  0
    9.2196   -1.2364   -1.4580 H   0  0  0  0  0  0  0  0  0  0  0  0
    9.5509   -0.3543    0.0415 H   0  0  0  0  0  0  0  0  0  0  0  0
    9.2631    0.5160   -1.5176 H   0  0  0  0  0  0  0  0  0  0  0  0
    4.9190    1.3693    0.7570 H   0  0  0  0  0  0  0  0  0  0  0  0
    9.2485    2.5582   -0.3560 H   0  0  0  0  0  0  0  0  0  0  0  0
    9.5511    1.7067    1.1648 H   0  0  0  0  0  0  0  0  0  0  0  0
   -4.7051   -0.6811   -2.1607 H   0  0  0  0  0  0  0  0  0  0  0  0
   -3.2556    0.1532   -1.5435 H   0  0  0  0  0  0  0  0  0  0  0  0
   -4.2855    1.7286   -0.3167 H   0  0  0  0  0  0  0  0  0  0  0  0
   -5.4412    1.4911   -1.6256 H   0  0  0  0  0  0  0  0  0  0  0  0
  1  2  1  0
  2  3  1  0
  3  4  1  0
  4  5  1  0
  5  6  1  0
  6  7  1  0
  7  8  1  0
  8  9  2  0
  9 10  1  0
 10 11  2  0
 11 12  1  0
 12 13  2  0
 13 14  1  0
 14 15  1  0
 14 16  1  0
 14 17  1  0
 11 18  1  0
 18 19  2  0
 18 20  1  0
 20 21  1  0
 21 22  2  0
 22 23  1  0
 23 24  2  0
 24 25  1  0
 24 26  1  0
 26 27  2  0
 26 28  1  0
 28 29  1  0
 28 30  2  0
  6 31  1  0
 31 32  1  0
 32  3  1  0
 13  8  1  0
 27 21  1  0
  1 33  1  0
  1 34  1  0
  1 35  1  0
  2 36  1  0
  2 37  1  0
  4 38  1  0
  4 39  1  0
  5 40  1  0
  5 41  1  0
  7 42  1  0
  7 43  1  0
  9 44  1  0
 10 45  1  0
 12 46  1  0
 20 47  1  0
 22 48  1  0
 23 49  1  0
 25 50  1  0
 25 51  1  0
 25 52  1  0
 27 53  1  0
 29 54  1  0
 29 55  1  0
 31 56  1  0
 31 57  1  0
 32 58  1  0
 32 59  1  0
M  END
$$$$
