[H]c1nc(N([H])c2c([H])c([H])c(N3C([H])([H])C([H])([H])N(c4c([H])c([H])c([H])c([H])c4[H])C([H])([H])C3([H])[H])c([H])c2OC([H])([H])[H])nc(N([H])c2c([H])c([H])c([H])c([H])c2C(=O)N([H])[H])c1Cl
     RDKit          3D

 66 70  0  0  0  0  0  0  0  0999 V2000
    0.1129   -0.4552    3.7424 C   0  0  0  0  0  0  0  0  0  0  0  0
    0.6973   -0.2394    2.4802 O   0  0  0  0  0  0  0  0  0  0  0  0
   -0.0405    0.1158    1.3676 C   0  0  0  0  0  0  0  0  0  0  0  0
   -1.3842    0.2711    1.4570 C   0  0  0  0  0  0  0  0  0  0  0  0
   -2.1904    0.6225    0.3976 C   0  0  0  0  0  0  0  0  0  0  0  0
   -1.5210    0.8130   -0.7998 C   0  0  0  0  0  0  0  0  0  0  0  0
   -0.1484    0.6630   -0.9273 C   0  0  0  0  0  0  0  0  0  0  0  0
    0.6245    0.3138    0.1395 C   0  0  0  0  0  0  0  0  0  0  0  0
    2.0276    0.1430    0.1115 N   0  0  0  0  0  0  0  0  0  0  0  0
    2.8483    0.2561   -1.0237 C   0  0  0  0  0  0  0  0  0  0  0  0
    2.4725    0.5350   -2.2657 N   0  0  0  0  0  0  0  0  0  0  0  0
    3.2761    0.6344   -3.3243 C   0  0  0  0  0  0  0  0  0  0  0  0
    4.6209    0.4327   -3.1305 C   0  0  0  0  0  0  0  0  0  0  0  0
    5.7617    0.5377   -4.4361 Cl  0  0  0  0  0  0  0  0  0  0  0  0
    5.0984    0.1341   -1.8495 C   0  0  0  0  0  0  0  0  0  0  0  0
    6.4637   -0.1075   -1.6676 N   0  0  0  0  0  0  0  0  0  0  0  0
    7.1317   -0.3758   -0.4677 C   0  0  0  0  0  0  0  0  0  0  0  0
    6.6556    0.0505    0.7797 C   0  0  0  0  0  0  0  0  0  0  0  0
    7.3754   -0.1216    1.9454 C   0  0  0  0  0  0  0  0  0  0  0  0
    8.5989   -0.7202    1.9444 C   0  0  0  0  0  0  0  0  0  0  0  0
    9.0955   -1.1498    0.7453 C   0  0  0  0  0  0  0  0  0  0  0  0
    8.3805   -0.9873   -0.4547 C   0  0  0  0  0  0  0  0  0  0  0  0
    8.9760   -1.5614   -1.6435 C   0  0  0  0  0  0  0  0  0  0  0  0
   10.3175   -2.1302   -1.5285 N   0  0  0  0  0  0  0  0  0  0  0  0
    8.4431   -1.6153   -2.7703 O   0  0  0  0  0  0  0  0  0  0  0  0
    4.2035    0.0637   -0.8858 N   0  0  0  0  0  0  0  0  0  0  0  0
   -3.5984    0.7742    0.4925 N   0  0  0  0  0  0  0  0  0  0  0  0
   -4.2989    0.3824    1.6900 C   0  0  0  0  0  0  0  0  0  0  0  0
   -5.7231   -0.0606    1.4461 C   0  0  0  0  0  0  0  0  0  0  0  0
   -6.3837    0.6955    0.3913 N   0  0  0  0  0  0  0  0  0  0  0  0
   -5.6772    1.8618   -0.0675 C   0  0  0  0  0  0  0  0  0  0  0  0
   -4.3475    1.3381   -0.6263 C   0  0  0  0  0  0  0  0  0  0  0  0
   -7.6215    0.2539   -0.0977 C   0  0  0  0  0  0  0  0  0  0  0  0
   -8.3241    0.8980   -1.0945 C   0  0  0  0  0  0  0  0  0  0  0  0
   -9.5401    0.4331   -1.5541 C   0  0  0  0  0  0  0  0  0  0  0  0
  -10.1085   -0.7020   -1.0331 C   0  0  0  0  0  0  0  0  0  0  0  0
   -9.4300   -1.3696   -0.0333 C   0  0  0  0  0  0  0  0  0  0  0  0
   -8.2192   -0.8805    0.4029 C   0  0  0  0  0  0  0  0  0  0  0  0
   -0.3774    0.4735    4.1383 H   0  0  0  0  0  0  0  0  0  0  0  0
   -0.6295   -1.2592    3.6336 H   0  0  0  0  0  0  0  0  0  0  0  0
    0.9058   -0.6985    4.4767 H   0  0  0  0  0  0  0  0  0  0  0  0
   -1.9269    0.1256    2.4058 H   0  0  0  0  0  0  0  0  0  0  0  0
   -2.1231    1.0939   -1.6690 H   0  0  0  0  0  0  0  0  0  0  0  0
    0.2491    0.8418   -1.9070 H   0  0  0  0  0  0  0  0  0  0  0  0
    2.5183   -0.0958    1.0481 H   0  0  0  0  0  0  0  0  0  0  0  0
    2.9291    0.8626   -4.3155 H   0  0  0  0  0  0  0  0  0  0  0  0
    7.0598   -0.0342   -2.5323 H   0  0  0  0  0  0  0  0  0  0  0  0
    5.6996    0.5460    0.8011 H   0  0  0  0  0  0  0  0  0  0  0  0
    6.9543    0.2266    2.8635 H   0  0  0  0  0  0  0  0  0  0  0  0
    9.1788   -0.8583    2.8756 H   0  0  0  0  0  0  0  0  0  0  0  0
   10.0849   -1.6319    0.7518 H   0  0  0  0  0  0  0  0  0  0  0  0
   10.4888   -2.9136   -0.8919 H   0  0  0  0  0  0  0  0  0  0  0  0
   11.0617   -1.7149   -2.1038 H   0  0  0  0  0  0  0  0  0  0  0  0
   -4.2627    1.2133    2.4540 H   0  0  0  0  0  0  0  0  0  0  0  0
   -3.8211   -0.4954    2.2132 H   0  0  0  0  0  0  0  0  0  0  0  0
   -6.2806    0.0816    2.3838 H   0  0  0  0  0  0  0  0  0  0  0  0
   -5.6868   -1.1381    1.1514 H   0  0  0  0  0  0  0  0  0  0  0  0
   -5.3965    2.4472    0.8535 H   0  0  0  0  0  0  0  0  0  0  0  0
   -6.2002    2.5038   -0.7656 H   0  0  0  0  0  0  0  0  0  0  0  0
   -3.8151    2.1885   -1.0912 H   0  0  0  0  0  0  0  0  0  0  0  0
   -4.5733    0.5278   -1.3191 H   0  0  0  0  0  0  0  0  0  0  0  0
   -7.9347    1.7901   -1.5436 H   0  0  0  0  0  0  0  0  0  0  0  0
  -10.0840    0.9471   -2.3382 H   0  0  0  0  0  0  0  0  0  0  0  0
  -11.0740   -1.0814   -1.3899 H   0  0  0  0  0  0  0  0  0  0  0  0
   -9.8579   -2.2693    0.3950 H   0  0  0  0  0  0  0  0  0  0  0  0
   -7.7112   -1.4259    1.1879 H   0  0  0  0  0  0  0  0  0  0  0  0
  1  2  1  0
  2  3  1  0
  3  4  2  0
  4  5  1  0
  5  6  2  0
  6  7  1  0
  7  8  2  0
  8  9  1  0
  9 10  1  0
 10 11  2  0
 11 12  1  0
 12 13  2  0
 13 14  1  0
 13 15  1  0
 15 16  1  0
 16 17  1  0
 17 18  2  0
 18 19  1  0
 19 20  2  0
 20 21  1  0
 21 22  2  0
 22 23  1  0
 23 24  1  0
 23 25  2  0
 15 26  2  0
  5 27  1  0
 27 28  1  0
 28 29  1  0
 29 30  1  0
 30 31  1  0
 31 32  1  0
 30 33  1  0
 33 34  2  0
 34 35  1  0
 35 36  2  0
 36 37  1  0
 37 38  2  0
  8  3  1  0
 26 10  1  0
 32 27  1  0
 38 33  1  0
 22 17  1  0
  1 39  1  0
  1 40  1  0
  1 41  1  0
  4 42  1  0
  6 43  1  0
  7 44  1  0
  9 45  1  0
 12 46  1  0
 16 47  1  0
 18 48  1  0
 19 49  1  0
 20 50  1  0
 21 51  1  0
 24 52  1  0
 24 53  1  0
 28 54  1  0
 28 55  1  0
 29 56  1  0
 29 57  1  0
 31 58  1  0
 31 59  1  0
 32 60  1  0
 32 61  1  0
 34 62  1  0
 35 63  1  0
 36 64  1  0
 37 65  1  0
 38 66  1  0
M  END
$$$$
[H]c1nc(N([H])c2c([H])c([H])c(N3C([H])([H])C([H])([H])N(C([H])([H])[H])C([H])([H])C3([H])[H])c([H])c2OC([H])([H])[H])nc(N([H])c2c([H])c([H])c([H])c([H])c2P(=O)(C([H])([H])[H])C([H])([H])[H])c1Cl
     RDKit          3D

 64 67  0  0  0  0  0  0  0  0999 V2000
    2.2800    3.4701    0.7665 C   0  0  0  0  0  0  0  0  0  0  0  0
    1.5577    2.2913    0.5129 O   0  0  0  0  0  0  0  0  0  0  0  0
    2.1725    1.0943    0.2339 C   0  0  0  0  0  0  0  0  0  0  0  0
    3.5506    0.9866    0.1880 C   0  0  0  0  0  0  0  0  0  0  0  0
    4.1999   -0.1830   -0.0857 C   0  0  0  0  0  0  0  0  0  0  0  0
    3.3974   -1.2921   -0.3226 C   0  0  0  0  0  0  0  0  0  0  0  0
    2.0209   -1.2081   -0.2818 C   0  0  0  0  0  0  0  0  0  0  0  0
    1.3590   -0.0356   -0.0074 C   0  0  0  0  0  0  0  0  0  0  0  0
   -0.0231    0.1527    0.0572 N   0  0  0  0  0  0  0  0  0  0  0  0
   -1.0680   -0.7747   -0.1309 C   0  0  0  0  0  0  0  0  0  0  0  0
   -0.8307   -2.0604   -0.4194 N   0  0  0  0  0  0  0  0  0  0  0  0
   -1.7842   -2.9772   -0.6063 C   0  0  0  0  0  0  0  0  0  0  0  0
   -3.0850   -2.5425   -0.4882 C   0  0  0  0  0  0  0  0  0  0  0  0
   -4.3445   -3.7249   -0.7285 Cl  0  0  0  0  0  0  0  0  0  0  0  0
   -3.3767   -1.1861   -0.1832 C   0  0  0  0  0  0  0  0  0  0  0  0
   -4.7423   -0.8676   -0.0922 N   0  0  0  0  0  0  0  0  0  0  0  0
   -5.2920    0.3864    0.1967 C   0  0  0  0  0  0  0  0  0  0  0  0
   -4.5754    1.5391    0.4619 C   0  0  0  0  0  0  0  0  0  0  0  0
   -5.2354    2.7237    0.7376 C   0  0  0  0  0  0  0  0  0  0  0  0
   -6.5967    2.7981    0.7579 C   0  0  0  0  0  0  0  0  0  0  0  0
   -7.3102    1.6360    0.4906 C   0  0  0  0  0  0  0  0  0  0  0  0
   -6.7041    0.4401    0.2124 C   0  0  0  0  0  0  0  0  0  0  0  0
   -7.6931   -0.9659   -0.1146 P   0  0  0  0  0  0  0  0  0  0  0  0
   -7.5564   -1.6103   -1.7911 C   0  0  0  0  0  0  0  0  0  0  0  0
   -9.4546   -0.4824    0.1090 C   0  0  0  0  0  0  0  0  0  0  0  0
   -7.4625   -2.0853    0.8833 O   0  0  0  0  0  0  0  0  0  0  0  0
   -2.3664   -0.3649   -0.0184 N   0  0  0  0  0  0  0  0  0  0  0  0
    5.6073   -0.2586   -0.1368 N   0  0  0  0  0  0  0  0  0  0  0  0
    6.3360   -1.5100   -0.0530 C   0  0  0  0  0  0  0  0  0  0  0  0
    7.5581   -1.4473    0.8143 C   0  0  0  0  0  0  0  0  0  0  0  0
    8.1858   -0.1856    0.9365 N   0  0  0  0  0  0  0  0  0  0  0  0
    9.3364   -0.0009    0.0912 C   0  0  0  0  0  0  0  0  0  0  0  0
    7.3056    0.9586    0.9532 C   0  0  0  0  0  0  0  0  0  0  0  0
    6.4052    0.9271   -0.2958 C   0  0  0  0  0  0  0  0  0  0  0  0
    1.6124    4.3653    0.6843 H   0  0  0  0  0  0  0  0  0  0  0  0
    3.0707    3.6396   -0.0203 H   0  0  0  0  0  0  0  0  0  0  0  0
    2.7111    3.4928    1.7899 H   0  0  0  0  0  0  0  0  0  0  0  0
    4.0898    1.9139    0.3958 H   0  0  0  0  0  0  0  0  0  0  0  0
    3.9090   -2.2199   -0.5432 H   0  0  0  0  0  0  0  0  0  0  0  0
    1.4693   -2.0992   -0.4736 H   0  0  0  0  0  0  0  0  0  0  0  0
   -0.3647    1.1422    0.2817 H   0  0  0  0  0  0  0  0  0  0  0  0
   -1.5635   -4.0229   -0.8415 H   0  0  0  0  0  0  0  0  0  0  0  0
   -5.4065   -1.6616   -0.2596 H   0  0  0  0  0  0  0  0  0  0  0  0
   -3.4974    1.5258    0.4575 H   0  0  0  0  0  0  0  0  0  0  0  0
   -4.6497    3.5989    0.9382 H   0  0  0  0  0  0  0  0  0  0  0  0
   -7.0915    3.7321    0.9752 H   0  0  0  0  0  0  0  0  0  0  0  0
   -8.3788    1.7170    0.5121 H   0  0  0  0  0  0  0  0  0  0  0  0
   -8.3509   -1.1358   -2.4020 H   0  0  0  0  0  0  0  0  0  0  0  0
   -7.7327   -2.7059   -1.8413 H   0  0  0  0  0  0  0  0  0  0  0  0
   -6.6070   -1.3168   -2.2863 H   0  0  0  0  0  0  0  0  0  0  0  0
   -9.6197    0.4419   -0.4817 H   0  0  0  0  0  0  0  0  0  0  0  0
   -9.6297   -0.2236    1.1686 H   0  0  0  0  0  0  0  0  0  0  0  0
  -10.1282   -1.3044   -0.1549 H   0  0  0  0  0  0  0  0  0  0  0  0
    6.5261   -1.9176   -1.0655 H   0  0  0  0  0  0  0  0  0  0  0  0
    5.6507   -2.2547    0.4501 H   0  0  0  0  0  0  0  0  0  0  0  0
    7.3731   -1.8807    1.8387 H   0  0  0  0  0  0  0  0  0  0  0  0
    8.3102   -2.1621    0.3667 H   0  0  0  0  0  0  0  0  0  0  0  0
    9.1322    0.6630   -0.7851 H   0  0  0  0  0  0  0  0  0  0  0  0
   10.1067    0.5186    0.6979 H   0  0  0  0  0  0  0  0  0  0  0  0
    9.7163   -0.9548   -0.3318 H   0  0  0  0  0  0  0  0  0  0  0  0
    7.9221    1.8660    0.9318 H   0  0  0  0  0  0  0  0  0  0  0  0
    6.6623    0.9600    1.8444 H   0  0  0  0  0  0  0  0  0  0  0  0
    7.1085    0.7755   -1.1661 H   0  0  0  0  0  0  0  0  0  0  0  0
    5.8785    1.8666   -0.3743 H   0  0  0  0  0  0  0  0  0  0  0  0
  1  2  1  0
  2  3  1  0
  3  4  2  0
  4  5  1  0
  5  6  2  0
  6  7  1  0
  7  8  2  0
  8  9  1  0
  9 10  1  0
 10 11  2  0
 11 12  1  0
 12 13  2  0
 13 14  1  0
 13 15  1  0
 15 16  1  0
 16 17  1  0
 17 18  2  0
 18 19  1  0
 19 20  2  0
 20 21  1  0
 21 22  2  0
 22 23  1  0
 23 24  1  0
 23 25  1  0
 23 26  2  0
 15 27  2  0
  5 28  1  0
 28 29  1  0
 29 30  1  0
 30 31  1  0
 31 32  1  0
 31 33  1  0
 33 34  1  0
  8  3  1  0
 27 10  1  0
 34 28  1  0
 22 17  1  0
  1 35  1  0
  1 36  1  0
  1 37  1  0
  4 38  1  0
  6 39  1  0
  7 40  1  0
  9 41  1  0
 12 42  1  0
 16 43  1  0
 18 44  1  0
 19 45  1  0
 20 46  1  0
 21 47  1  0
 24 48  1  0
 24 49  1  0
 24 50  1  0
 25 51  1  0
 25 52  1  0
 25 53  1  0
 29 54  1  0
 29 55  1  0
 30 56  1  0
 30 57  1  0
 32 58  1  0
 32 59  1  0
 32 60  1  0
 33 61  1  0
 33 62  1  0
 34 63  1  0
 34 64  1  0
M  END
$$$$
[H]c1nc2c([H])c(OC([H])([H])C([H])([H])C([H])([H])N3C([H])([H])C([H])([H])OC([H])([H])C3([H])[H])c(OC([H])([H])[H])c([H])c2c(Oc2c([H])c([H])c(N([H])C(=O)N([H])c3c(Cl)c([H])c([H])c([H])c3Cl)c([H])c2F)c1[H]
     RDKit          3D

 71 75  0  0  0  0  0  0  0  0999 V2000
    1.6998    4.9294    1.0614 C   0  0  0  0  0  0  0  0  0  0  0  0
    2.5792    4.0229    0.4303 O   0  0  0  0  0  0  0  0  0  0  0  0
    2.1484    2.7568    0.0185 C   0  0  0  0  0  0  0  0  0  0  0  0
    0.8437    2.3132    0.2086 C   0  0  0  0  0  0  0  0  0  0  0  0
    0.4000    1.0625   -0.1972 C   0  0  0  0  0  0  0  0  0  0  0  0
   -0.8884    0.6304   -0.0267 C   0  0  0  0  0  0  0  0  0  0  0  0
   -1.8189    1.4613    0.6050 O   0  0  0  0  0  0  0  0  0  0  0  0
   -3.1640    1.0489    0.6517 C   0  0  0  0  0  0  0  0  0  0  0  0
   -3.7183    0.6483    1.8396 C   0  0  0  0  0  0  0  0  0  0  0  0
   -5.0409    0.2331    1.8844 C   0  0  0  0  0  0  0  0  0  0  0  0
   -5.8473    0.2068    0.7508 C   0  0  0  0  0  0  0  0  0  0  0  0
   -7.1578   -0.3440    0.7264 N   0  0  0  0  0  0  0  0  0  0  0  0
   -7.2441   -1.7153    1.2402 C   0  0  0  0  0  0  0  0  0  0  0  0
   -6.0915   -2.1767    1.6512 O   0  0  0  0  0  0  0  0  0  0  0  0
   -8.3818   -2.3938    1.2577 N   0  0  0  0  0  0  0  0  0  0  0  0
   -9.5198   -3.1572    1.3040 C   0  0  0  0  0  0  0  0  0  0  0  0
   -9.9947   -3.8895    0.2268 C   0  0  0  0  0  0  0  0  0  0  0  0
   -9.0798   -3.8589   -1.2519 Cl  0  0  0  0  0  0  0  0  0  0  0  0
  -11.1416   -4.6234    0.2910 C   0  0  0  0  0  0  0  0  0  0  0  0
  -11.8665   -4.6503    1.4629 C   0  0  0  0  0  0  0  0  0  0  0  0
  -11.4185   -3.9353    2.5453 C   0  0  0  0  0  0  0  0  0  0  0  0
  -10.2561   -3.1861    2.4910 C   0  0  0  0  0  0  0  0  0  0  0  0
   -9.7263   -2.3014    3.9046 Cl  0  0  0  0  0  0  0  0  0  0  0  0
   -5.2380    0.6262   -0.4149 C   0  0  0  0  0  0  0  0  0  0  0  0
   -3.9390    1.0389   -0.4921 C   0  0  0  0  0  0  0  0  0  0  0  0
   -3.3492    1.4497   -1.6638 F   0  0  0  0  0  0  0  0  0  0  0  0
   -1.3043   -0.6354   -0.4707 C   0  0  0  0  0  0  0  0  0  0  0  0
   -0.3508   -1.4084   -1.0791 C   0  0  0  0  0  0  0  0  0  0  0  0
    0.9091   -0.9852   -1.2437 N   0  0  0  0  0  0  0  0  0  0  0  0
    1.3181    0.2281   -0.8208 C   0  0  0  0  0  0  0  0  0  0  0  0
    2.6133    0.6579   -1.0124 C   0  0  0  0  0  0  0  0  0  0  0  0
    3.0360    1.9058   -0.6031 C   0  0  0  0  0  0  0  0  0  0  0  0
    4.3443    2.3261   -0.8027 O   0  0  0  0  0  0  0  0  0  0  0  0
    5.3359    1.5434   -1.3906 C   0  0  0  0  0  0  0  0  0  0  0  0
    6.6365    2.3219   -1.4138 C   0  0  0  0  0  0  0  0  0  0  0  0
    7.7279    1.5496   -2.0517 C   0  0  0  0  0  0  0  0  0  0  0  0
    8.0823    0.3149   -1.4821 N   0  0  0  0  0  0  0  0  0  0  0  0
    9.1139   -0.4284   -2.1044 C   0  0  0  0  0  0  0  0  0  0  0  0
   10.3968   -0.4859   -1.3178 C   0  0  0  0  0  0  0  0  0  0  0  0
   10.1092   -1.0209   -0.0695 O   0  0  0  0  0  0  0  0  0  0  0  0
    9.2865   -0.1492    0.6255 C   0  0  0  0  0  0  0  0  0  0  0  0
    7.9653    0.1191   -0.0879 C   0  0  0  0  0  0  0  0  0  0  0  0
    1.2476    4.4353    1.9470 H   0  0  0  0  0  0  0  0  0  0  0  0
    0.8991    5.2631    0.3469 H   0  0  0  0  0  0  0  0  0  0  0  0
    2.2392    5.8716    1.3100 H   0  0  0  0  0  0  0  0  0  0  0  0
    0.1176    2.9429    0.6935 H   0  0  0  0  0  0  0  0  0  0  0  0
   -3.1272    0.6447    2.7728 H   0  0  0  0  0  0  0  0  0  0  0  0
   -5.5057   -0.0985    2.8093 H   0  0  0  0  0  0  0  0  0  0  0  0
   -7.9749    0.1254    0.3950 H   0  0  0  0  0  0  0  0  0  0  0  0
   -7.7279   -3.5331    1.7231 H   0  0  0  0  0  0  0  0  0  0  0  0
  -11.5239   -5.1962   -0.5446 H   0  0  0  0  0  0  0  0  0  0  0  0
  -12.7747   -5.2300    1.5270 H   0  0  0  0  0  0  0  0  0  0  0  0
  -11.9826   -3.9563    3.4585 H   0  0  0  0  0  0  0  0  0  0  0  0
   -5.8518    0.6213   -1.3091 H   0  0  0  0  0  0  0  0  0  0  0  0
   -2.3127   -0.9400   -0.3120 H   0  0  0  0  0  0  0  0  0  0  0  0
   -0.6655   -2.3924   -1.4260 H   0  0  0  0  0  0  0  0  0  0  0  0
    3.3153   -0.0118   -1.4963 H   0  0  0  0  0  0  0  0  0  0  0  0
    5.0853    1.2385   -2.4321 H   0  0  0  0  0  0  0  0  0  0  0  0
    5.4204    0.6117   -0.8076 H   0  0  0  0  0  0  0  0  0  0  0  0
    6.4403    3.2076   -2.0768 H   0  0  0  0  0  0  0  0  0  0  0  0
    6.8751    2.7580   -0.4224 H   0  0  0  0  0  0  0  0  0  0  0  0
    8.6765    2.1639   -2.1179 H   0  0  0  0  0  0  0  0  0  0  0  0
    7.4439    1.3852   -3.1268 H   0  0  0  0  0  0  0  0  0  0  0  0
    9.3505   -0.0266   -3.1241 H   0  0  0  0  0  0  0  0  0  0  0  0
    8.7447   -1.4924   -2.2059 H   0  0  0  0  0  0  0  0  0  0  0  0
   11.0746   -1.1922   -1.8338 H   0  0  0  0  0  0  0  0  0  0  0  0
   10.8901    0.5148   -1.2652 H   0  0  0  0  0  0  0  0  0  0  0  0
    9.8082    0.7829    0.9035 H   0  0  0  0  0  0  0  0  0  0  0  0
    9.0209   -0.6663    1.5779 H   0  0  0  0  0  0  0  0  0  0  0  0
    7.3508   -0.8092    0.0827 H   0  0  0  0  0  0  0  0  0  0  0  0
    7.4384    0.9280    0.4488 H   0  0  0  0  0  0  0  0  0  0  0  0
  1  2  1  0
  2  3  1  0
  3  4  2  0
  4  5  1  0
  5  6  2  0
  6  7  1  0
  7  8  1  0
  8  9  2  0
  9 10  1  0
 10 11  2  0
 11 12  1  0
 12 13  1  0
 13 14  2  0
 13 15  1  0
 15 16  1  0
 16 17  2  0
 17 18  1  0
 17 19  1  0
 19 20  2  0
 20 21  1  0
 21 22  2  0
 22 23  1  0
 11 24  1  0
 24 25  2  0
 25 26  1  0
  6 27  1  0
 27 28  2  0
 28 29  1  0
 29 30  2  0
 30 31  1  0
 31 32  2  0
 32 33  1  0
 33 34  1  0
 34 35  1  0
 35 36  1  0
 36 37  1  0
 37 38  1  0
 38 39  1  0
 39 40  1  0
 40 41  1  0
 41 42  1  0
 32  3  1  0
 42 37  1  0
 30  5  1  0
 25  8  1  0
 22 16  1  0
  1 43  1  0
  1 44  1  0
  1 45  1  0
  4 46  1  0
  9 47  1  0
 10 48  1  0
 12 49  1  0
 15 50  1  0
 19 51  1  0
 20 52  1  0
 21 53  1  0
 24 54  1  0
 27 55  1  0
 28 56  1  0
 31 57  1  0
 34 58  1  0
 34 59  1  0
 35 60  1  0
 35 61  1  0
 36 62  1  0
 36 63  1  0
 38 64  1  0
 38 65  1  0
 39 66  1  0
 39 67  1  0
 41 68  1  0
 41 69  1  0
 42 70  1  0
 42 71  1  0
M  END
$$$$
[H]N=C(N([H])[H])N([H])C([H])([H])C([H])([H])C([H])([H])[C@@]([H])(C(=O)N([H])[C@]([H])(C(=O)N([H])C([H])([H])c1c([H])c([H])c([H])c([H])c1[H])C([H])([H])c1c([H])n([H])c2c([H])c([H])c([H])c([H])c12)N([H])C(=O)[C@@]([H])(N([H])C(=O)[C@@]([H])(N([H])[H])C([H])([H])c1c([H])c([H])c([H])c([H])c1[H])C([H])(C([H])([H])[H])C([H])([H])[H]
     RDKit          3D

100103  0  0  0  0  0  0  0  0999 V2000
    1.4999   -1.2766   -2.7106 C   0  0  0  0  0  0  0  0  0  0  0  0
    1.9585    0.1431   -2.7686 C   0  0  0  0  0  0  0  0  0  0  0  0
    2.7582    0.4443   -4.0120 C   0  0  0  0  0  0  0  0  0  0  0  0
    2.6346    0.5983   -1.5161 C   0  0  2  0  0  0  0  0  0  0  0  0
    3.8297   -0.1933   -1.1955 N   0  0  0  0  0  0  0  0  0  0  0  0
    5.1130    0.3989   -1.1531 C   0  0  0  0  0  0  0  0  0  0  0  0
    5.2114    1.6242   -1.4041 O   0  0  0  0  0  0  0  0  0  0  0  0
    6.3203   -0.3730   -0.8256 C   0  0  1  0  0  0  0  0  0  0  0  0
    7.5110    0.4508   -0.9286 N   0  0  0  0  0  0  0  0  0  0  0  0
    6.2259   -1.0143    0.5480 C   0  0  0  0  0  0  0  0  0  0  0  0
    7.4744   -1.7562    0.7968 C   0  0  0  0  0  0  0  0  0  0  0  0
    8.5239   -1.0932    1.3994 C   0  0  0  0  0  0  0  0  0  0  0  0
    9.7139   -1.7514    1.6513 C   0  0  0  0  0  0  0  0  0  0  0  0
    9.8794   -3.0757    1.3090 C   0  0  0  0  0  0  0  0  0  0  0  0
    8.8231   -3.7227    0.7085 C   0  0  0  0  0  0  0  0  0  0  0  0
    7.6237   -3.0745    0.4502 C   0  0  0  0  0  0  0  0  0  0  0  0
    1.6818    0.5058   -0.3930 C   0  0  0  0  0  0  0  0  0  0  0  0
    1.9526   -0.2178    0.5891 O   0  0  0  0  0  0  0  0  0  0  0  0
    0.4431    1.2174   -0.3724 N   0  0  0  0  0  0  0  0  0  0  0  0
   -0.4779    1.1208    0.7299 C   0  0  1  0  0  0  0  0  0  0  0  0
   -1.0424    2.4319    1.1370 C   0  0  0  0  0  0  0  0  0  0  0  0
   -0.1906    3.5279    1.6028 C   0  0  0  0  0  0  0  0  0  0  0  0
    0.7963    4.1062    0.6430 C   0  0  0  0  0  0  0  0  0  0  0  0
    1.4991    5.2081    1.3066 N   0  0  0  0  0  0  0  0  0  0  0  0
    0.7995    6.3804    1.6199 C   0  0  0  0  0  0  0  0  0  0  0  0
    0.2215    7.1559    0.5787 N   0  0  0  0  0  0  0  0  0  0  0  0
    0.6542    6.7959    2.8320 N   0  0  0  0  0  0  0  0  0  0  0  0
   -1.6793    0.2822    0.2976 C   0  0  0  0  0  0  0  0  0  0  0  0
   -1.6941   -0.1214   -0.8668 O   0  0  0  0  0  0  0  0  0  0  0  0
   -2.7059    0.0017    1.2046 N   0  0  0  0  0  0  0  0  0  0  0  0
   -3.9062   -0.7286    0.9923 C   0  0  1  0  0  0  0  0  0  0  0  0
   -4.6178   -0.3966   -0.3156 C   0  0  0  0  0  0  0  0  0  0  0  0
   -5.0238    1.0328   -0.3708 C   0  0  0  0  0  0  0  0  0  0  0  0
   -4.4835    2.1084   -1.0333 C   0  0  0  0  0  0  0  0  0  0  0  0
   -5.1971    3.2169   -0.7808 N   0  0  0  0  0  0  0  0  0  0  0  0
   -6.2348    2.9266    0.0549 C   0  0  0  0  0  0  0  0  0  0  0  0
   -7.2408    3.6981    0.6039 C   0  0  0  0  0  0  0  0  0  0  0  0
   -8.1864    3.1380    1.4356 C   0  0  0  0  0  0  0  0  0  0  0  0
   -8.0797    1.7880    1.6883 C   0  0  0  0  0  0  0  0  0  0  0  0
   -7.0783    1.0185    1.1422 C   0  0  0  0  0  0  0  0  0  0  0  0
   -6.1254    1.5783    0.3059 C   0  0  0  0  0  0  0  0  0  0  0  0
   -3.8076   -2.1702    1.2512 C   0  0  0  0  0  0  0  0  0  0  0  0
   -2.6954   -2.6461    1.6043 O   0  0  0  0  0  0  0  0  0  0  0  0
   -4.8966   -3.0707    1.1274 N   0  0  0  0  0  0  0  0  0  0  0  0
   -4.8535   -4.4756    1.3623 C   0  0  0  0  0  0  0  0  0  0  0  0
   -4.2519   -5.2817    0.3114 C   0  0  0  0  0  0  0  0  0  0  0  0
   -3.6898   -4.6905   -0.7930 C   0  0  0  0  0  0  0  0  0  0  0  0
   -3.1160   -5.4673   -1.8072 C   0  0  0  0  0  0  0  0  0  0  0  0
   -3.1091   -6.8410   -1.7084 C   0  0  0  0  0  0  0  0  0  0  0  0
   -3.6683   -7.4375   -0.6094 C   0  0  0  0  0  0  0  0  0  0  0  0
   -4.2393   -6.6523    0.4000 C   0  0  0  0  0  0  0  0  0  0  0  0
    2.3206   -2.0087   -2.6110 H   0  0  0  0  0  0  0  0  0  0  0  0
    0.8017   -1.3948   -1.8589 H   0  0  0  0  0  0  0  0  0  0  0  0
    0.8871   -1.4778   -3.6289 H   0  0  0  0  0  0  0  0  0  0  0  0
    1.0256    0.7702   -2.8568 H   0  0  0  0  0  0  0  0  0  0  0  0
    2.7596    1.5475   -4.1874 H   0  0  0  0  0  0  0  0  0  0  0  0
    2.2769   -0.1111   -4.8464 H   0  0  0  0  0  0  0  0  0  0  0  0
    3.8057    0.1244   -3.9641 H   0  0  0  0  0  0  0  0  0  0  0  0
    2.9900    1.6544   -1.6558 H   0  0  0  0  0  0  0  0  0  0  0  0
    3.7527   -1.2114   -0.9927 H   0  0  0  0  0  0  0  0  0  0  0  0
    6.4205   -1.1945   -1.5609 H   0  0  0  0  0  0  0  0  0  0  0  0
    7.9304    0.3171   -1.8929 H   0  0  0  0  0  0  0  0  0  0  0  0
    7.3425    1.4491   -0.7163 H   0  0  0  0  0  0  0  0  0  0  0  0
    5.3401   -1.6785    0.5894 H   0  0  0  0  0  0  0  0  0  0  0  0
    6.0507   -0.2002    1.2734 H   0  0  0  0  0  0  0  0  0  0  0  0
    8.4450   -0.0421    1.6913 H   0  0  0  0  0  0  0  0  0  0  0  0
   10.5070   -1.1902    2.1259 H   0  0  0  0  0  0  0  0  0  0  0  0
   10.8382   -3.5754    1.5219 H   0  0  0  0  0  0  0  0  0  0  0  0
    8.9588   -4.7585    0.4434 H   0  0  0  0  0  0  0  0  0  0  0  0
    6.8358   -3.6380   -0.0221 H   0  0  0  0  0  0  0  0  0  0  0  0
    0.1764    1.8344   -1.1746 H   0  0  0  0  0  0  0  0  0  0  0  0
   -0.0176    0.6087    1.6127 H   0  0  0  0  0  0  0  0  0  0  0  0
   -1.6878    2.8441    0.2952 H   0  0  0  0  0  0  0  0  0  0  0  0
   -1.8512    2.2726    1.9442 H   0  0  0  0  0  0  0  0  0  0  0  0
    0.3765    3.2494    2.5571 H   0  0  0  0  0  0  0  0  0  0  0  0
   -0.8325    4.4108    1.9428 H   0  0  0  0  0  0  0  0  0  0  0  0
    0.2346    4.5378   -0.2336 H   0  0  0  0  0  0  0  0  0  0  0  0
    1.5271    3.4051    0.2429 H   0  0  0  0  0  0  0  0  0  0  0  0
    2.4923    5.1036    1.5305 H   0  0  0  0  0  0  0  0  0  0  0  0
    0.8535    7.6819   -0.0590 H   0  0  0  0  0  0  0  0  0  0  0  0
   -0.7969    7.2090    0.4408 H   0  0  0  0  0  0  0  0  0  0  0  0
    0.1342    7.6681    3.0665 H   0  0  0  0  0  0  0  0  0  0  0  0
   -2.5578    0.3864    2.1936 H   0  0  0  0  0  0  0  0  0  0  0  0
   -4.6544   -0.3146    1.7596 H   0  0  0  0  0  0  0  0  0  0  0  0
   -4.0296   -0.6158   -1.2142 H   0  0  0  0  0  0  0  0  0  0  0  0
   -5.5165   -1.0604   -0.3802 H   0  0  0  0  0  0  0  0  0  0  0  0
   -3.5943    2.0304   -1.6698 H   0  0  0  0  0  0  0  0  0  0  0  0
   -5.0295    4.1753   -1.1404 H   0  0  0  0  0  0  0  0  0  0  0  0
   -7.3174    4.7535    0.4011 H   0  0  0  0  0  0  0  0  0  0  0  0
   -8.9903    3.7338    1.8801 H   0  0  0  0  0  0  0  0  0  0  0  0
   -8.8082    1.2993    2.3421 H   0  0  0  0  0  0  0  0  0  0  0  0
   -6.9832   -0.0457    1.3314 H   0  0  0  0  0  0  0  0  0  0  0  0
   -5.8253   -2.6467    0.8315 H   0  0  0  0  0  0  0  0  0  0  0  0
   -5.8820   -4.8170    1.6450 H   0  0  0  0  0  0  0  0  0  0  0  0
   -4.2670   -4.6087    2.3242 H   0  0  0  0  0  0  0  0  0  0  0  0
   -3.6453   -3.6266   -0.9643 H   0  0  0  0  0  0  0  0  0  0  0  0
   -2.6661   -5.0305   -2.6878 H   0  0  0  0  0  0  0  0  0  0  0  0
   -2.6705   -7.4808   -2.4800 H   0  0  0  0  0  0  0  0  0  0  0  0
   -3.6579   -8.5184   -0.5406 H   0  0  0  0  0  0  0  0  0  0  0  0
   -4.6603   -7.1918    1.2326 H   0  0  0  0  0  0  0  0  0  0  0  0
  1  2  1  0
  2  3  1  0
  2  4  1  0
  4  5  1  0
  5  6  1  0
  6  7  2  0
  6  8  1  0
  8  9  1  0
  8 10  1  0
 10 11  1  0
 11 12  2  0
 12 13  1  0
 13 14  2  0
 14 15  1  0
 15 16  2  0
  4 17  1  0
 17 18  2  0
 17 19  1  0
 19 20  1  0
 20 21  1  0
 21 22  1  0
 22 23  1  0
 23 24  1  0
 24 25  1  0
 25 26  1  0
 25 27  2  3
 20 28  1  0
 28 29  2  0
 28 30  1  0
 30 31  1  0
 31 32  1  0
 32 33  1  0
 33 34  2  0
 34 35  1  0
 35 36  1  0
 36 37  2  0
 37 38  1  0
 38 39  2  0
 39 40  1  0
 40 41  2  0
 31 42  1  0
 42 43  2  0
 42 44  1  0
 44 45  1  0
 45 46  1  0
 46 47  2  0
 47 48  1  0
 48 49  2  0
 49 50  1  0
 50 51  2  0
 16 11  1  0
 41 33  1  0
 51 46  1  0
 41 36  1  0
  1 52  1  0
  1 53  1  0
  1 54  1  0
  2 55  1  0
  3 56  1  0
  3 57  1  0
  3 58  1  0
  4 59  1  6
  5 60  1  0
  8 61  1  6
  9 62  1  0
  9 63  1  0
 10 64  1  0
 10 65  1  0
 12 66  1  0
 13 67  1  0
 14 68  1  0
 15 69  1  0
 16 70  1  0
 19 71  1  0
 20 72  1  1
 21 73  1  0
 21 74  1  0
 22 75  1  0
 22 76  1  0
 23 77  1  0
 23 78  1  0
 24 79  1  0
 26 80  1  0
 26 81  1  0
 27 82  1  0
 30 83  1  0
 31 84  1  1
 32 85  1  0
 32 86  1  0
 34 87  1  0
 35 88  1  0
 37 89  1  0
 38 90  1  0
 39 91  1  0
 40 92  1  0
 44 93  1  0
 45 94  1  0
 45 95  1  0
 47 96  1  0
 48 97  1  0
 49 98  1  0
 50 99  1  0
 51100  1  0
M  END
$$$$
[H]N=C(N([H])[H])N([H])C([H])([H])C([H])([H])C([H])([H])[C@@]([H])(C(=O)N([H])[C@]([H])(C(=O)N([H])C([H])([H])C(=O)N([H])[H])C([H])([H])c1c([H])c([H])c([H])c([H])c1[H])N([H])C(=O)[C@@]([H])(N([H])C(=O)[C@@]([H])(N([H])[H])C([H])([H])c1c([H])c([H])c(O[H])c([H])c1[H])C([H])([H])C([H])(C([H])([H])[H])C([H])([H])[H]
     RDKit          3D

 94 95  0  0  0  0  0  0  0  0999 V2000
    3.3530    1.9214   -2.7192 C   0  0  0  0  0  0  0  0  0  0  0  0
    2.9061    0.8961   -1.6880 C   0  0  0  0  0  0  0  0  0  0  0  0
    1.7280    0.1790   -2.2418 C   0  0  0  0  0  0  0  0  0  0  0  0
    2.7135    1.6009   -0.3950 C   0  0  0  0  0  0  0  0  0  0  0  0
    2.2674    0.7937    0.7586 C   0  0  2  0  0  0  0  0  0  0  0  0
    3.0750   -0.3128    1.1299 N   0  0  0  0  0  0  0  0  0  0  0  0
    3.5821   -0.6242    2.4226 C   0  0  0  0  0  0  0  0  0  0  0  0
    3.3331    0.1006    3.4003 O   0  0  0  0  0  0  0  0  0  0  0  0
    4.4134   -1.8430    2.5631 C   0  0  1  0  0  0  0  0  0  0  0  0
    4.8360   -2.2555    1.2391 N   0  0  0  0  0  0  0  0  0  0  0  0
    5.5820   -1.7440    3.4739 C   0  0  0  0  0  0  0  0  0  0  0  0
    6.2930   -3.0820    3.4371 C   0  0  0  0  0  0  0  0  0  0  0  0
    7.3168   -3.2906    2.5378 C   0  0  0  0  0  0  0  0  0  0  0  0
    7.9756   -4.5137    2.4700 C   0  0  0  0  0  0  0  0  0  0  0  0
    7.6079   -5.5425    3.3097 C   0  0  0  0  0  0  0  0  0  0  0  0
    8.2334   -6.7904    3.2860 O   0  0  0  0  0  0  0  0  0  0  0  0
    6.5810   -5.3471    4.2166 C   0  0  0  0  0  0  0  0  0  0  0  0
    5.9483   -4.1253    4.2612 C   0  0  0  0  0  0  0  0  0  0  0  0
    0.8143    0.6092    0.8386 C   0  0  0  0  0  0  0  0  0  0  0  0
    0.4025   -0.4388    1.4674 O   0  0  0  0  0  0  0  0  0  0  0  0
   -0.1770    1.4508    0.3119 N   0  0  0  0  0  0  0  0  0  0  0  0
   -1.5930    1.2765    0.4505 C   0  0  1  0  0  0  0  0  0  0  0  0
   -2.3507    2.5445    0.3319 C   0  0  0  0  0  0  0  0  0  0  0  0
   -1.9157    3.5390    1.4008 C   0  0  0  0  0  0  0  0  0  0  0  0
   -2.6810    4.8271    1.2946 C   0  0  0  0  0  0  0  0  0  0  0  0
   -2.2289    5.7364    2.3382 N   0  0  0  0  0  0  0  0  0  0  0  0
   -2.7782    7.0462    2.4618 C   0  0  0  0  0  0  0  0  0  0  0  0
   -2.6343    7.9890    1.4081 N   0  0  0  0  0  0  0  0  0  0  0  0
   -3.4230    7.4179    3.5344 N   0  0  0  0  0  0  0  0  0  0  0  0
   -2.0768    0.3080   -0.5628 C   0  0  0  0  0  0  0  0  0  0  0  0
   -1.3773   -0.7181   -0.7547 O   0  0  0  0  0  0  0  0  0  0  0  0
   -3.2738    0.4948   -1.3041 N   0  0  0  0  0  0  0  0  0  0  0  0
   -3.6655   -0.5340   -2.2674 C   0  0  1  0  0  0  0  0  0  0  0  0
   -5.0592   -1.0322   -2.0415 C   0  0  0  0  0  0  0  0  0  0  0  0
   -5.1989   -1.6224   -0.6729 C   0  0  0  0  0  0  0  0  0  0  0  0
   -4.9028   -2.9605   -0.4057 C   0  0  0  0  0  0  0  0  0  0  0  0
   -5.0522   -3.4610    0.8495 C   0  0  0  0  0  0  0  0  0  0  0  0
   -5.4991   -2.6775    1.9098 C   0  0  0  0  0  0  0  0  0  0  0  0
   -5.7939   -1.3546    1.6604 C   0  0  0  0  0  0  0  0  0  0  0  0
   -5.6400   -0.8558    0.3845 C   0  0  0  0  0  0  0  0  0  0  0  0
   -3.4041   -0.0950   -3.6604 C   0  0  0  0  0  0  0  0  0  0  0  0
   -2.9396    1.0522   -3.8709 O   0  0  0  0  0  0  0  0  0  0  0  0
   -3.6555   -0.9268   -4.7776 N   0  0  0  0  0  0  0  0  0  0  0  0
   -3.3998   -0.5088   -6.1340 C   0  0  0  0  0  0  0  0  0  0  0  0
   -3.7594   -1.6289   -7.0397 C   0  0  0  0  0  0  0  0  0  0  0  0
   -3.6177   -1.5541   -8.4615 N   0  0  0  0  0  0  0  0  0  0  0  0
   -4.2091   -2.7039   -6.5716 O   0  0  0  0  0  0  0  0  0  0  0  0
    3.6978    1.4293   -3.6545 H   0  0  0  0  0  0  0  0  0  0  0  0
    2.4492    2.5726   -2.9071 H   0  0  0  0  0  0  0  0  0  0  0  0
    4.1220    2.5829   -2.2884 H   0  0  0  0  0  0  0  0  0  0  0  0
    3.7884    0.1682   -1.6164 H   0  0  0  0  0  0  0  0  0  0  0  0
    0.8982    0.8613   -2.4674 H   0  0  0  0  0  0  0  0  0  0  0  0
    1.3407   -0.6200   -1.5761 H   0  0  0  0  0  0  0  0  0  0  0  0
    2.0347   -0.2879   -3.2020 H   0  0  0  0  0  0  0  0  0  0  0  0
    3.7316    2.0245   -0.1130 H   0  0  0  0  0  0  0  0  0  0  0  0
    2.0993    2.5013   -0.5843 H   0  0  0  0  0  0  0  0  0  0  0  0
    2.4254    1.5079    1.7148 H   0  0  0  0  0  0  0  0  0  0  0  0
    3.3166   -0.9798    0.3193 H   0  0  0  0  0  0  0  0  0  0  0  0
    3.7152   -2.6625    2.9696 H   0  0  0  0  0  0  0  0  0  0  0  0
    5.0243   -3.2642    1.1541 H   0  0  0  0  0  0  0  0  0  0  0  0
    5.6313   -1.6288    0.9474 H   0  0  0  0  0  0  0  0  0  0  0  0
    6.3015   -0.9659    3.2586 H   0  0  0  0  0  0  0  0  0  0  0  0
    5.2719   -1.6666    4.5623 H   0  0  0  0  0  0  0  0  0  0  0  0
    7.6514   -2.5323    1.8624 H   0  0  0  0  0  0  0  0  0  0  0  0
    8.7702   -4.6664    1.7696 H   0  0  0  0  0  0  0  0  0  0  0  0
    8.9786   -7.0253    2.6673 H   0  0  0  0  0  0  0  0  0  0  0  0
    6.3188   -6.1788    4.8553 H   0  0  0  0  0  0  0  0  0  0  0  0
    5.1500   -3.9931    4.9734 H   0  0  0  0  0  0  0  0  0  0  0  0
    0.1268    2.3141   -0.2510 H   0  0  0  0  0  0  0  0  0  0  0  0
   -1.8144    0.7796    1.4664 H   0  0  0  0  0  0  0  0  0  0  0  0
   -2.2313    3.0213   -0.6722 H   0  0  0  0  0  0  0  0  0  0  0  0
   -3.4478    2.4220    0.4883 H   0  0  0  0  0  0  0  0  0  0  0  0
   -0.8430    3.7475    1.3421 H   0  0  0  0  0  0  0  0  0  0  0  0
   -2.1421    3.0666    2.3789 H   0  0  0  0  0  0  0  0  0  0  0  0
   -3.7777    4.6700    1.4485 H   0  0  0  0  0  0  0  0  0  0  0  0
   -2.5209    5.3505    0.3348 H   0  0  0  0  0  0  0  0  0  0  0  0
   -1.4909    5.4734    3.0385 H   0  0  0  0  0  0  0  0  0  0  0  0
   -2.2557    7.6645    0.4808 H   0  0  0  0  0  0  0  0  0  0  0  0
   -2.8966    8.9892    1.5337 H   0  0  0  0  0  0  0  0  0  0  0  0
   -3.5395    6.7361    4.3222 H   0  0  0  0  0  0  0  0  0  0  0  0
   -3.8499    1.3471   -1.1601 H   0  0  0  0  0  0  0  0  0  0  0  0
   -2.9825   -1.4206   -2.1070 H   0  0  0  0  0  0  0  0  0  0  0  0
   -5.3670   -1.7917   -2.7716 H   0  0  0  0  0  0  0  0  0  0  0  0
   -5.8227   -0.2096   -2.0875 H   0  0  0  0  0  0  0  0  0  0  0  0
   -4.5635   -3.5322   -1.2410 H   0  0  0  0  0  0  0  0  0  0  0  0
   -4.8148   -4.5148    1.0420 H   0  0  0  0  0  0  0  0  0  0  0  0
   -5.5924   -3.1470    2.8873 H   0  0  0  0  0  0  0  0  0  0  0  0
   -6.1476   -0.7276    2.4775 H   0  0  0  0  0  0  0  0  0  0  0  0
   -5.8786    0.1969    0.2008 H   0  0  0  0  0  0  0  0  0  0  0  0
   -4.0482   -1.8921   -4.5627 H   0  0  0  0  0  0  0  0  0  0  0  0
   -4.0484    0.3501   -6.4147 H   0  0  0  0  0  0  0  0  0  0  0  0
   -2.3248   -0.2388   -6.2278 H   0  0  0  0  0  0  0  0  0  0  0  0
   -2.7057   -1.8796   -8.8642 H   0  0  0  0  0  0  0  0  0  0  0  0
   -4.3935   -1.1915   -9.0326 H   0  0  0  0  0  0  0  0  0  0  0  0
  1  2  1  0
  2  3  1  0
  2  4  1  0
  4  5  1  0
  5  6  1  0
  6  7  1  0
  7  8  2  0
  7  9  1  0
  9 10  1  0
  9 11  1  0
 11 12  1  0
 12 13  2  0
 13 14  1  0
 14 15  2  0
 15 16  1  0
 15 17  1  0
 17 18  2  0
  5 19  1  0
 19 20  2  0
 19 21  1  0
 21 22  1  0
 22 23  1  0
 23 24  1  0
 24 25  1  0
 25 26  1  0
 26 27  1  0
 27 28  1  0
 27 29  2  3
 22 30  1  0
 30 31  2  0
 30 32  1  0
 32 33  1  0
 33 34  1  0
 34 35  1  0
 35 36  2  0
 36 37  1  0
 37 38  2  0
 38 39  1  0
 39 40  2  0
 33 41  1  0
 41 42  2  0
 41 43  1  0
 43 44  1  0
 44 45  1  0
 45 46  1  0
 45 47  2  0
 18 12  1  0
 40 35  1  0
  1 48  1  0
  1 49  1  0
  1 50  1  0
  2 51  1  0
  3 52  1  0
  3 53  1  0
  3 54  1  0
  4 55  1  0
  4 56  1  0
  5 57  1  1
  6 58  1  0
  9 59  1  1
 10 60  1  0
 10 61  1  0
 11 62  1  0
 11 63  1  0
 13 64  1  0
 14 65  1  0
 16 66  1  0
 17 67  1  0
 18 68  1  0
 21 69  1  0
 22 70  1  1
 23 71  1  0
 23 72  1  0
 24 73  1  0
 24 74  1  0
 25 75  1  0
 25 76  1  0
 26 77  1  0
 28 78  1  0
 28 79  1  0
 29 80  1  0
 32 81  1  0
 33 82  1  1
 34 83  1  0
 34 84  1  0
 36 85  1  0
 37 86  1  0
 38 87  1  0
 39 88  1  0
 40 89  1  0
 43 90  1  0
 44 91  1  0
 44 92  1  0
 46 93  1  0
 46 94  1  0
M  END
$$$$
[H]c1nc(N([H])c2c([H])c([H])c(N3C([H])([H])C([H])([H])OC([H])([H])C3([H])[H])c([H])c2OC([H])([H])[H])nc(N([H])c2c([H])c([H])c([H])c([H])c2S(=O)(=O)C(F)(F)F)c1Cl
     RDKit          3D

 57 60  0  0  0  0  0  0  0  0999 V2000
   -2.2272   -3.5436    0.5368 C   0  0  0  0  0  0  0  0  0  0  0  0
   -1.5469   -2.3146    0.4078 O   0  0  0  0  0  0  0  0  0  0  0  0
   -2.2989   -1.1545    0.3416 C   0  0  0  0  0  0  0  0  0  0  0  0
   -3.6639   -1.1462    0.3954 C   0  0  0  0  0  0  0  0  0  0  0  0
   -4.4153   -0.0004    0.3304 C   0  0  0  0  0  0  0  0  0  0  0  0
   -3.7298    1.1731    0.2058 C   0  0  0  0  0  0  0  0  0  0  0  0
   -2.3324    1.2174    0.1463 C   0  0  0  0  0  0  0  0  0  0  0  0
   -1.5930    0.0717    0.2118 C   0  0  0  0  0  0  0  0  0  0  0  0
   -0.2097    0.0200    0.1608 N   0  0  0  0  0  0  0  0  0  0  0  0
    0.7086    1.0722    0.0361 C   0  0  0  0  0  0  0  0  0  0  0  0
    0.3750    2.3584   -0.0581 N   0  0  0  0  0  0  0  0  0  0  0  0
    1.2945    3.3098   -0.1747 C   0  0  0  0  0  0  0  0  0  0  0  0
    2.6367    2.9841   -0.2014 C   0  0  0  0  0  0  0  0  0  0  0  0
    3.8791    4.1983   -0.3529 Cl  0  0  0  0  0  0  0  0  0  0  0  0
    3.0362    1.6369   -0.1048 C   0  0  0  0  0  0  0  0  0  0  0  0
    4.4092    1.3444   -0.1354 N   0  0  0  0  0  0  0  0  0  0  0  0
    5.0044    0.0720   -0.0530 C   0  0  0  0  0  0  0  0  0  0  0  0
    4.3358   -1.1189    0.0706 C   0  0  0  0  0  0  0  0  0  0  0  0
    4.9771   -2.3678    0.1488 C   0  0  0  0  0  0  0  0  0  0  0  0
    6.3351   -2.4381    0.1027 C   0  0  0  0  0  0  0  0  0  0  0  0
    7.0476   -1.2664   -0.0208 C   0  0  0  0  0  0  0  0  0  0  0  0
    6.4112   -0.0479   -0.0969 C   0  0  0  0  0  0  0  0  0  0  0  0
    7.3462    1.4091   -0.2420 S   0  0  0  0  0  0  0  0  0  0  0  0
    7.0423    2.1210   -1.5289 O   0  0  0  0  0  0  0  0  0  0  0  0
    7.1231    2.3154    0.9272 O   0  0  0  0  0  0  0  0  0  0  0  0
    9.1028    1.0355   -0.3365 C   0  0  0  0  0  0  0  0  0  0  0  0
    9.3244    0.2643   -1.4433 F   0  0  0  0  0  0  0  0  0  0  0  0
    9.7283    2.2798   -0.4981 F   0  0  0  0  0  0  0  0  0  0  0  0
    9.5733    0.5104    0.8267 F   0  0  0  0  0  0  0  0  0  0  0  0
    2.0446    0.7678    0.0078 N   0  0  0  0  0  0  0  0  0  0  0  0
   -5.8010   -0.0438    0.3917 N   0  0  0  0  0  0  0  0  0  0  0  0
   -6.6791    1.1015    0.2633 C   0  0  0  0  0  0  0  0  0  0  0  0
   -7.9001    0.6480   -0.5172 C   0  0  0  0  0  0  0  0  0  0  0  0
   -8.6001   -0.3435    0.1237 O   0  0  0  0  0  0  0  0  0  0  0  0
   -7.8699   -0.9708    1.1266 C   0  0  0  0  0  0  0  0  0  0  0  0
   -6.4783   -1.3294    0.6052 C   0  0  0  0  0  0  0  0  0  0  0  0
   -1.5035   -4.3939    0.3706 H   0  0  0  0  0  0  0  0  0  0  0  0
   -2.6379   -3.7091    1.5535 H   0  0  0  0  0  0  0  0  0  0  0  0
   -3.0210   -3.6829   -0.2157 H   0  0  0  0  0  0  0  0  0  0  0  0
   -4.1399   -2.1268    0.4946 H   0  0  0  0  0  0  0  0  0  0  0  0
   -4.2451    2.1153    0.1492 H   0  0  0  0  0  0  0  0  0  0  0  0
   -1.8761    2.1759    0.0487 H   0  0  0  0  0  0  0  0  0  0  0  0
    0.2417   -0.9578    0.2245 H   0  0  0  0  0  0  0  0  0  0  0  0
    1.0339    4.3654   -0.2525 H   0  0  0  0  0  0  0  0  0  0  0  0
    5.0462    2.1761   -0.2306 H   0  0  0  0  0  0  0  0  0  0  0  0
    3.2536   -1.1577    0.1150 H   0  0  0  0  0  0  0  0  0  0  0  0
    4.3841   -3.2735    0.2459 H   0  0  0  0  0  0  0  0  0  0  0  0
    6.8178   -3.4064    0.1639 H   0  0  0  0  0  0  0  0  0  0  0  0
    8.1397   -1.3429   -0.0502 H   0  0  0  0  0  0  0  0  0  0  0  0
   -6.9935    1.5165    1.2220 H   0  0  0  0  0  0  0  0  0  0  0  0
   -6.1781    1.8494   -0.3933 H   0  0  0  0  0  0  0  0  0  0  0  0
   -7.6122    0.4253   -1.5487 H   0  0  0  0  0  0  0  0  0  0  0  0
   -8.5711    1.5497   -0.5715 H   0  0  0  0  0  0  0  0  0  0  0  0
   -8.3226   -1.8943    1.4831 H   0  0  0  0  0  0  0  0  0  0  0  0
   -7.7300   -0.2469    1.9516 H   0  0  0  0  0  0  0  0  0  0  0  0
   -6.5134   -1.8582   -0.3589 H   0  0  0  0  0  0  0  0  0  0  0  0
   -5.9626   -1.9482    1.3658 H   0  0  0  0  0  0  0  0  0  0  0  0
  1  2  1  0
  2  3  1  0
  3  4  2  0
  4  5  1  0
  5  6  2  0
  6  7  1  0
  7  8  2  0
  8  9  1  0
  9 10  1  0
 10 11  2  0
 11 12  1  0
 12 13  2  0
 13 14  1  0
 13 15  1  0
 15 16  1  0
 16 17  1  0
 17 18  2  0
 18 19  1  0
 19 20  2  0
 20 21  1  0
 21 22  2  0
 22 23  1  0
 23 24  2  0
 23 25  2  0
 23 26  1  0
 26 27  1  0
 26 28  1  0
 26 29  1  0
 15 30  2  0
  5 31  1  0
 31 32  1  0
 32 33  1  0
 33 34  1  0
 34 35  1  0
 35 36  1  0
  8  3  1  0
 30 10  1  0
 36 31  1  0
 22 17  1  0
  1 37  1  0
  1 38  1  0
  1 39  1  0
  4 40  1  0
  6 41  1  0
  7 42  1  0
  9 43  1  0
 12 44  1  0
 16 45  1  0
 18 46  1  0
 19 47  1  0
 20 48  1  0
 21 49  1  0
 32 50  1  0
 32 51  1  0
 33 52  1  0
 33 53  1  0
 35 54  1  0
 35 55  1  0
 36 56  1  0
 36 57  1  0
M  END
$$$$
[H]OC(=O)[C@@]([H])(N([H])C(=O)[C@@]([H])(N([H])C(=O)[C@@]([H])(N([H])C(=O)[C@@]([H])(N([H])C(=O)[C@]([H])(N([H])C(=O)OC([H])([H])c1c([H])c([H])c([H])c([H])c1[H])C([H])([H])c1c([H])c([H])c([H])c([H])c1[H])C([H])(C([H])([H])[H])C([H])([H])[H])C([H])([H])c1c([H])c([H])c([H])c([H])c1[H])C([H])([H])c1c([H])c([H])c([H])c([H])c1[H])C([H])([H])c1c([H])c([H])c([H])c([H])c1[H]
     RDKit          3D

115119  0  0  0  0  0  0  0  0999 V2000
    1.4777    3.4354   -3.8138 C   0  0  0  0  0  0  0  0  0  0  0  0
    0.7729    2.3802   -2.9956 C   0  0  0  0  0  0  0  0  0  0  0  0
    0.6862    1.1232   -3.8610 C   0  0  0  0  0  0  0  0  0  0  0  0
    1.5649    2.1103   -1.7753 C   0  0  2  0  0  0  0  0  0  0  0  0
    2.8678    1.6460   -2.0983 N   0  0  0  0  0  0  0  0  0  0  0  0
    4.0549    1.9967   -1.4233 C   0  0  0  0  0  0  0  0  0  0  0  0
    3.9288    2.7958   -0.4389 O   0  0  0  0  0  0  0  0  0  0  0  0
    5.4094    1.5317   -1.7387 C   0  0  1  0  0  0  0  0  0  0  0  0
    6.1346    2.5629   -2.5869 C   0  0  0  0  0  0  0  0  0  0  0  0
    7.4824    2.0416   -2.8774 C   0  0  0  0  0  0  0  0  0  0  0  0
    7.7589    1.2758   -3.9939 C   0  0  0  0  0  0  0  0  0  0  0  0
    9.0195    0.7908   -4.2518 C   0  0  0  0  0  0  0  0  0  0  0  0
   10.0604    1.0561   -3.3958 C   0  0  0  0  0  0  0  0  0  0  0  0
    9.8118    1.8155   -2.2784 C   0  0  0  0  0  0  0  0  0  0  0  0
    8.5400    2.2915   -2.0384 C   0  0  0  0  0  0  0  0  0  0  0  0
    6.1802    1.2940   -0.5246 N   0  0  0  0  0  0  0  0  0  0  0  0
    6.7655    0.0108   -0.2881 C   0  0  0  0  0  0  0  0  0  0  0  0
    6.6265   -0.9030   -1.1406 O   0  0  0  0  0  0  0  0  0  0  0  0
    7.4839   -0.2744    0.8509 O   0  0  0  0  0  0  0  0  0  0  0  0
    8.0596   -1.5780    1.0423 C   0  0  0  0  0  0  0  0  0  0  0  0
    8.7130   -1.5976    2.3711 C   0  0  0  0  0  0  0  0  0  0  0  0
    8.0362   -2.2162    3.4182 C   0  0  0  0  0  0  0  0  0  0  0  0
    8.6085   -2.2487    4.6766 C   0  0  0  0  0  0  0  0  0  0  0  0
    9.8404   -1.6700    4.8806 C   0  0  0  0  0  0  0  0  0  0  0  0
   10.4808   -1.0708    3.8370 C   0  0  0  0  0  0  0  0  0  0  0  0
    9.9279   -1.0206    2.5487 C   0  0  0  0  0  0  0  0  0  0  0  0
    0.9021    1.1716   -0.8026 C   0  0  0  0  0  0  0  0  0  0  0  0
    1.5603    0.1858   -0.3863 O   0  0  0  0  0  0  0  0  0  0  0  0
   -0.4045    1.4107   -0.3871 N   0  0  0  0  0  0  0  0  0  0  0  0
   -1.1495    0.5709    0.5841 C   0  0  1  0  0  0  0  0  0  0  0  0
   -1.5803    1.4804    1.6681 C   0  0  0  0  0  0  0  0  0  0  0  0
   -2.3372    0.9573    2.7921 C   0  0  0  0  0  0  0  0  0  0  0  0
   -3.7102    1.0515    2.8675 C   0  0  0  0  0  0  0  0  0  0  0  0
   -4.4357    0.5654    3.9172 C   0  0  0  0  0  0  0  0  0  0  0  0
   -3.7881   -0.0562    4.9668 C   0  0  0  0  0  0  0  0  0  0  0  0
   -2.4218   -0.1724    4.9319 C   0  0  0  0  0  0  0  0  0  0  0  0
   -1.6924    0.3280    3.8573 C   0  0  0  0  0  0  0  0  0  0  0  0
   -2.1517   -0.1605   -0.1836 C   0  0  0  0  0  0  0  0  0  0  0  0
   -2.2487    0.0492   -1.4524 O   0  0  0  0  0  0  0  0  0  0  0  0
   -3.0749   -1.1226    0.2983 N   0  0  0  0  0  0  0  0  0  0  0  0
   -4.0204   -1.8112   -0.5721 C   0  0  1  0  0  0  0  0  0  0  0  0
   -4.2758   -3.2022   -0.2491 C   0  0  0  0  0  0  0  0  0  0  0  0
   -4.8133   -3.5894    1.0348 C   0  0  0  0  0  0  0  0  0  0  0  0
   -3.8977   -3.8250    2.0783 C   0  0  0  0  0  0  0  0  0  0  0  0
   -4.3230   -4.2086    3.3338 C   0  0  0  0  0  0  0  0  0  0  0  0
   -5.6401   -4.3794    3.6315 C   0  0  0  0  0  0  0  0  0  0  0  0
   -6.5652   -4.1580    2.6346 C   0  0  0  0  0  0  0  0  0  0  0  0
   -6.1245   -3.7766    1.3895 C   0  0  0  0  0  0  0  0  0  0  0  0
   -5.1511   -0.9388   -1.0023 C   0  0  0  0  0  0  0  0  0  0  0  0
   -5.1553    0.2637   -0.5589 O   0  0  0  0  0  0  0  0  0  0  0  0
   -6.1512   -1.4324   -1.8686 N   0  0  0  0  0  0  0  0  0  0  0  0
   -7.2680   -0.7431   -2.4323 C   0  0  1  0  0  0  0  0  0  0  0  0
   -8.5114   -0.5932   -1.6705 C   0  0  0  0  0  0  0  0  0  0  0  0
   -8.5144    0.1229   -0.4059 C   0  0  0  0  0  0  0  0  0  0  0  0
   -8.6825    1.4796   -0.4078 C   0  0  0  0  0  0  0  0  0  0  0  0
   -8.7102    2.1412    0.8173 C   0  0  0  0  0  0  0  0  0  0  0  0
   -8.5746    1.4841    2.0152 C   0  0  0  0  0  0  0  0  0  0  0  0
   -8.4066    0.1205    1.9763 C   0  0  0  0  0  0  0  0  0  0  0  0
   -8.3788   -0.5396    0.7803 C   0  0  0  0  0  0  0  0  0  0  0  0
   -6.8727    0.5153   -3.1594 C   0  0  0  0  0  0  0  0  0  0  0  0
   -7.7945    1.3155   -3.8008 O   0  0  0  0  0  0  0  0  0  0  0  0
   -5.6835    0.8831   -3.2101 O   0  0  0  0  0  0  0  0  0  0  0  0
    2.1683    2.9877   -4.5628 H   0  0  0  0  0  0  0  0  0  0  0  0
    0.7297    4.0640   -4.3224 H   0  0  0  0  0  0  0  0  0  0  0  0
    2.0896    4.1249   -3.1700 H   0  0  0  0  0  0  0  0  0  0  0  0
   -0.2637    2.7383   -2.7911 H   0  0  0  0  0  0  0  0  0  0  0  0
    0.5860    0.2444   -3.1905 H   0  0  0  0  0  0  0  0  0  0  0  0
   -0.2035    1.2002   -4.5201 H   0  0  0  0  0  0  0  0  0  0  0  0
    1.5710    1.0689   -4.5190 H   0  0  0  0  0  0  0  0  0  0  0  0
    1.7193    3.0920   -1.2106 H   0  0  0  0  0  0  0  0  0  0  0  0
    2.9735    0.9784   -2.9139 H   0  0  0  0  0  0  0  0  0  0  0  0
    5.3765    0.5931   -2.3095 H   0  0  0  0  0  0  0  0  0  0  0  0
    5.5918    2.7302   -3.5270 H   0  0  0  0  0  0  0  0  0  0  0  0
    6.2143    3.5400   -2.0632 H   0  0  0  0  0  0  0  0  0  0  0  0
    6.9538    1.0462   -4.6944 H   0  0  0  0  0  0  0  0  0  0  0  0
    9.2082    0.1995   -5.1253 H   0  0  0  0  0  0  0  0  0  0  0  0
   11.0465    0.6677   -3.6097 H   0  0  0  0  0  0  0  0  0  0  0  0
   10.6191    2.0286   -1.6005 H   0  0  0  0  0  0  0  0  0  0  0  0
    8.4317    2.8877   -1.1242 H   0  0  0  0  0  0  0  0  0  0  0  0
    6.2793    2.0861    0.1442 H   0  0  0  0  0  0  0  0  0  0  0  0
    8.8504   -1.6909    0.2494 H   0  0  0  0  0  0  0  0  0  0  0  0
    7.2807   -2.3302    0.9127 H   0  0  0  0  0  0  0  0  0  0  0  0
    7.0786   -2.6507    3.2008 H   0  0  0  0  0  0  0  0  0  0  0  0
    8.0679   -2.7345    5.4813 H   0  0  0  0  0  0  0  0  0  0  0  0
   10.2819   -1.7005    5.8812 H   0  0  0  0  0  0  0  0  0  0  0  0
   11.4459   -0.6208    4.0073 H   0  0  0  0  0  0  0  0  0  0  0  0
   10.4720   -0.5319    1.7467 H   0  0  0  0  0  0  0  0  0  0  0  0
   -0.9320    2.2262   -0.7600 H   0  0  0  0  0  0  0  0  0  0  0  0
   -0.3516   -0.1325    0.9878 H   0  0  0  0  0  0  0  0  0  0  0  0
   -2.1457    2.3244    1.1650 H   0  0  0  0  0  0  0  0  0  0  0  0
   -0.6744    1.9928    2.1134 H   0  0  0  0  0  0  0  0  0  0  0  0
   -4.2176    1.5383    2.0485 H   0  0  0  0  0  0  0  0  0  0  0  0
   -5.5215    0.6329    3.9918 H   0  0  0  0  0  0  0  0  0  0  0  0
   -4.3718   -0.4435    5.8025 H   0  0  0  0  0  0  0  0  0  0  0  0
   -1.9304   -0.6657    5.7634 H   0  0  0  0  0  0  0  0  0  0  0  0
   -0.6314    0.2372    3.8319 H   0  0  0  0  0  0  0  0  0  0  0  0
   -3.0750   -1.3768    1.2943 H   0  0  0  0  0  0  0  0  0  0  0  0
   -3.4134   -1.8327   -1.5670 H   0  0  0  0  0  0  0  0  0  0  0  0
   -4.8746   -3.6717   -1.0595 H   0  0  0  0  0  0  0  0  0  0  0  0
   -3.2784   -3.7542   -0.3498 H   0  0  0  0  0  0  0  0  0  0  0  0
   -2.8373   -3.7094    1.9284 H   0  0  0  0  0  0  0  0  0  0  0  0
   -3.6037   -4.3901    4.1431 H   0  0  0  0  0  0  0  0  0  0  0  0
   -5.9912   -4.6778    4.6053 H   0  0  0  0  0  0  0  0  0  0  0  0
   -7.6105   -4.2948    2.8749 H   0  0  0  0  0  0  0  0  0  0  0  0
   -6.8623   -3.6080    0.6257 H   0  0  0  0  0  0  0  0  0  0  0  0
   -6.0055   -2.4792   -2.1144 H   0  0  0  0  0  0  0  0  0  0  0  0
   -7.5748   -1.3974   -3.3502 H   0  0  0  0  0  0  0  0  0  0  0  0
   -9.2922   -0.1782   -2.3918 H   0  0  0  0  0  0  0  0  0  0  0  0
   -8.9179   -1.6362   -1.4846 H   0  0  0  0  0  0  0  0  0  0  0  0
   -8.8028    2.1090   -1.2765 H   0  0  0  0  0  0  0  0  0  0  0  0
   -8.8432    3.2279    0.8487 H   0  0  0  0  0  0  0  0  0  0  0  0
   -8.5962    1.9934    2.9737 H   0  0  0  0  0  0  0  0  0  0  0  0
   -8.2918   -0.4733    2.8846 H   0  0  0  0  0  0  0  0  0  0  0  0
   -8.2508   -1.6428    0.8089 H   0  0  0  0  0  0  0  0  0  0  0  0
   -7.9162    1.0971   -4.8047 H   0  0  0  0  0  0  0  0  0  0  0  0
  1  2  1  0
  2  3  1  0
  2  4  1  0
  4  5  1  0
  5  6  1  0
  6  7  2  0
  6  8  1  0
  8  9  1  0
  9 10  1  0
 10 11  2  0
 11 12  1  0
 12 13  2  0
 13 14  1  0
 14 15  2  0
  8 16  1  0
 16 17  1  0
 17 18  2  0
 17 19  1  0
 19 20  1  0
 20 21  1  0
 21 22  2  0
 22 23  1  0
 23 24  2  0
 24 25  1  0
 25 26  2  0
  4 27  1  0
 27 28  2  0
 27 29  1  0
 29 30  1  0
 30 31  1  0
 31 32  1  0
 32 33  2  0
 33 34  1  0
 34 35  2  0
 35 36  1  0
 36 37  2  0
 30 38  1  0
 38 39  2  0
 38 40  1  0
 40 41  1  0
 41 42  1  0
 42 43  1  0
 43 44  2  0
 44 45  1  0
 45 46  2  0
 46 47  1  0
 47 48  2  0
 41 49  1  0
 49 50  2  0
 49 51  1  0
 51 52  1  0
 52 53  1  0
 53 54  1  0
 54 55  2  0
 55 56  1  0
 56 57  2  0
 57 58  1  0
 58 59  2  0
 52 60  1  0
 60 61  1  0
 60 62  2  0
 15 10  1  0
 26 21  1  0
 37 32  1  0
 48 43  1  0
 59 54  1  0
  1 63  1  0
  1 64  1  0
  1 65  1  0
  2 66  1  0
  3 67  1  0
  3 68  1  0
  3 69  1  0
  4 70  1  1
  5 71  1  0
  8 72  1  6
  9 73  1  0
  9 74  1  0
 11 75  1  0
 12 76  1  0
 13 77  1  0
 14 78  1  0
 15 79  1  0
 16 80  1  0
 20 81  1  0
 20 82  1  0
 22 83  1  0
 23 84  1  0
 24 85  1  0
 25 86  1  0
 26 87  1  0
 29 88  1  0
 30 89  1  1
 31 90  1  0
 31 91  1  0
 33 92  1  0
 34 93  1  0
 35 94  1  0
 36 95  1  0
 37 96  1  0
 40 97  1  0
 41 98  1  6
 42 99  1  0
 42100  1  0
 44101  1  0
 45102  1  0
 46103  1  0
 47104  1  0
 48105  1  0
 51106  1  0
 52107  1  6
 53108  1  0
 53109  1  0
 55110  1  0
 56111  1  0
 57112  1  0
 58113  1  0
 59114  1  0
 61115  1  0
M  END
$$$$
[H]O[C@]1([H])[C@@]([H])(C([H])([H])OP(=O)(O[H])OP(=O)(O[H])O[H])O[C@@]([H])(n2c([H])nc3c(N([H])[H])nc([H])nc32)[C@]1([H])O[H]
     RDKit          3D

 42 44  0  0  0  0  0  0  0  0999 V2000
   -5.5858    2.7066   -0.5194 N   0  0  0  0  0  0  0  0  0  0  0  0
   -5.1159    1.4760    0.0108 C   0  0  0  0  0  0  0  0  0  0  0  0
   -5.9272    0.4247    0.2437 N   0  0  0  0  0  0  0  0  0  0  0  0
   -5.4161   -0.7101    0.7468 C   0  0  0  0  0  0  0  0  0  0  0  0
   -4.1184   -0.8534    1.0342 N   0  0  0  0  0  0  0  0  0  0  0  0
   -3.2751    0.1579    0.8216 C   0  0  0  0  0  0  0  0  0  0  0  0
   -1.9283    0.3121    1.0108 N   0  0  0  0  0  0  0  0  0  0  0  0
   -1.6612    1.5620    0.6077 C   0  0  0  0  0  0  0  0  0  0  0  0
   -2.7578    2.1980    0.1783 N   0  0  0  0  0  0  0  0  0  0  0  0
   -3.7743    1.3333    0.3060 C   0  0  0  0  0  0  0  0  0  0  0  0
   -1.0158   -0.6848    1.5386 C   0  0  2  0  0  0  0  0  0  0  0  0
    0.2860   -0.2664    1.3491 O   0  0  0  0  0  0  0  0  0  0  0  0
    0.8174   -0.8342    0.2246 C   0  0  2  0  0  0  0  0  0  0  0  0
    1.6152    0.0755   -0.6428 C   0  0  0  0  0  0  0  0  0  0  0  0
    2.6843    0.5569    0.1452 O   0  0  0  0  0  0  0  0  0  0  0  0
    3.6621    1.6040   -0.7381 P   0  0  0  0  0  0  0  0  0  0  0  0
    2.8393    2.0329   -2.1655 O   0  0  0  0  0  0  0  0  0  0  0  0
    4.0290    2.8425    0.0398 O   0  0  0  0  0  0  0  0  0  0  0  0
    5.0668    0.8034   -1.1797 O   0  0  0  0  0  0  0  0  0  0  0  0
    5.7546   -0.0719    0.0759 P   0  0  0  0  0  0  0  0  0  0  0  0
    6.1093   -1.6329   -0.5025 O   0  0  0  0  0  0  0  0  0  0  0  0
    7.1822    0.6553    0.6227 O   0  0  0  0  0  0  0  0  0  0  0  0
    4.8417   -0.2329    1.2544 O   0  0  0  0  0  0  0  0  0  0  0  0
   -0.3642   -1.4766   -0.5192 C   0  0  1  0  0  0  0  0  0  0  0  0
    0.0318   -2.5060   -1.3242 O   0  0  0  0  0  0  0  0  0  0  0  0
   -1.0814   -1.9720    0.7467 C   0  0  1  0  0  0  0  0  0  0  0  0
   -0.2123   -2.8760    1.3444 O   0  0  0  0  0  0  0  0  0  0  0  0
   -5.9591    3.4149    0.1432 H   0  0  0  0  0  0  0  0  0  0  0  0
   -5.5492    2.8757   -1.5432 H   0  0  0  0  0  0  0  0  0  0  0  0
   -6.1422   -1.5102    0.9043 H   0  0  0  0  0  0  0  0  0  0  0  0
   -0.6671    2.0177    0.6238 H   0  0  0  0  0  0  0  0  0  0  0  0
   -1.2008   -0.8631    2.6232 H   0  0  0  0  0  0  0  0  0  0  0  0
    1.4363   -1.7120    0.5620 H   0  0  0  0  0  0  0  0  0  0  0  0
    1.9710   -0.3780   -1.5697 H   0  0  0  0  0  0  0  0  0  0  0  0
    1.0254    0.9763   -0.9057 H   0  0  0  0  0  0  0  0  0  0  0  0
    2.8340    1.2104   -2.7406 H   0  0  0  0  0  0  0  0  0  0  0  0
    6.1433   -1.6184   -1.5091 H   0  0  0  0  0  0  0  0  0  0  0  0
    7.7498   -0.0424    0.9997 H   0  0  0  0  0  0  0  0  0  0  0  0
   -0.9861   -0.7162   -0.9911 H   0  0  0  0  0  0  0  0  0  0  0  0
   -0.6865   -2.6783   -1.9848 H   0  0  0  0  0  0  0  0  0  0  0  0
   -2.0680   -2.3539    0.5546 H   0  0  0  0  0  0  0  0  0  0  0  0
   -0.5867   -3.2466    2.1815 H   0  0  0  0  0  0  0  0  0  0  0  0
  1  2  1  0
  2  3  2  0
  3  4  1  0
  4  5  2  0
  5  6  1  0
  6  7  1  0
  7  8  1  0
  8  9  2  0
  9 10  1  0
  7 11  1  0
 11 12  1  0
 12 13  1  0
 13 14  1  0
 14 15  1  0
 15 16  1  0
 16 17  1  0
 16 18  2  0
 16 19  1  0
 19 20  1  0
 20 21  1  0
 20 22  1  0
 20 23  2  0
 13 24  1  0
 24 25  1  0
 24 26  1  0
 26 27  1  0
 10  2  1  0
 26 11  1  0
 10  6  2  0
  1 28  1  0
  1 29  1  0
  4 30  1  0
  8 31  1  0
 11 32  1  1
 13 33  1  1
 14 34  1  0
 14 35  1  0
 17 36  1  0
 21 37  1  0
 22 38  1  0
 24 39  1  6
 25 40  1  0
 26 41  1  6
 27 42  1  0
M  END
$$$$
[H]OC([H])([H])[C@@]1([H])O[C@@]([H])(n2c([H])nc3c(N([H])c4c([H])c([H])c(C(F)(F)F)c([H])c4[H])nc(N([H])[H])nc32)[C@]([H])(O[H])[C@]1([H])O[H]
     RDKit          3D

 47 50  0  0  0  0  0  0  0  0999 V2000
   -6.3554    1.5969   -0.9906 O   0  0  0  0  0  0  0  0  0  0  0  0
   -5.4724    0.7005   -1.6344 C   0  0  0  0  0  0  0  0  0  0  0  0
   -4.9109   -0.2053   -0.5694 C   0  0  1  0  0  0  0  0  0  0  0  0
   -3.9369   -1.0811   -0.9919 O   0  0  0  0  0  0  0  0  0  0  0  0
   -3.4169   -1.6280    0.1174 C   0  0  2  0  0  0  0  0  0  0  0  0
   -3.6410   -0.6411    1.2994 C   0  0  2  0  0  0  0  0  0  0  0  0
   -4.4857   -1.2407    2.1798 O   0  0  0  0  0  0  0  0  0  0  0  0
   -4.3012    0.5094    0.5981 C   0  0  2  0  0  0  0  0  0  0  0  0
   -5.2577    1.1272    1.4073 O   0  0  0  0  0  0  0  0  0  0  0  0
   -1.9609   -1.7840    0.1922 N   0  0  0  0  0  0  0  0  0  0  0  0
   -1.4068   -2.6337    1.0574 C   0  0  0  0  0  0  0  0  0  0  0  0
   -0.0828   -2.4066    1.0789 N   0  0  0  0  0  0  0  0  0  0  0  0
    0.1939   -1.4236    0.2189 C   0  0  0  0  0  0  0  0  0  0  0  0
    1.3890   -0.7885   -0.1151 C   0  0  0  0  0  0  0  0  0  0  0  0
    2.6027   -1.1196    0.5526 N   0  0  0  0  0  0  0  0  0  0  0  0
    3.8220   -0.4258    0.3956 C   0  0  0  0  0  0  0  0  0  0  0  0
    5.0310   -0.9985    0.6812 C   0  0  0  0  0  0  0  0  0  0  0  0
    6.2391   -0.3414    0.5672 C   0  0  0  0  0  0  0  0  0  0  0  0
    6.2594    0.9613    0.1396 C   0  0  0  0  0  0  0  0  0  0  0  0
    5.0622    1.5516   -0.1458 C   0  0  0  0  0  0  0  0  0  0  0  0
    3.8541    0.8805   -0.0239 C   0  0  0  0  0  0  0  0  0  0  0  0
    7.5306    1.7405   -0.0283 C   0  0  0  0  0  0  0  0  0  0  0  0
    8.5505    1.0942    0.5817 F   0  0  0  0  0  0  0  0  0  0  0  0
    7.3149    3.0267    0.4510 F   0  0  0  0  0  0  0  0  0  0  0  0
    7.7749    1.8016   -1.3959 F   0  0  0  0  0  0  0  0  0  0  0  0
    1.2917    0.1747   -1.0140 N   0  0  0  0  0  0  0  0  0  0  0  0
    0.1404    0.5479   -1.5838 C   0  0  0  0  0  0  0  0  0  0  0  0
    0.2264    1.5777   -2.5475 N   0  0  0  0  0  0  0  0  0  0  0  0
   -1.0268   -0.0515   -1.2531 N   0  0  0  0  0  0  0  0  0  0  0  0
   -0.9943   -1.0385   -0.3430 C   0  0  0  0  0  0  0  0  0  0  0  0
   -5.9127    2.4878   -0.9389 H   0  0  0  0  0  0  0  0  0  0  0  0
   -4.7735    1.1469   -2.3216 H   0  0  0  0  0  0  0  0  0  0  0  0
   -6.1943    0.0488   -2.2424 H   0  0  0  0  0  0  0  0  0  0  0  0
   -5.7535   -0.8844   -0.1821 H   0  0  0  0  0  0  0  0  0  0  0  0
   -3.8861   -2.5983    0.3314 H   0  0  0  0  0  0  0  0  0  0  0  0
   -2.6605   -0.3553    1.7276 H   0  0  0  0  0  0  0  0  0  0  0  0
   -3.9403   -1.6798    2.9106 H   0  0  0  0  0  0  0  0  0  0  0  0
   -3.5445    1.2364    0.2197 H   0  0  0  0  0  0  0  0  0  0  0  0
   -4.7225    1.4769    2.1824 H   0  0  0  0  0  0  0  0  0  0  0  0
   -1.9216   -3.4021    1.6480 H   0  0  0  0  0  0  0  0  0  0  0  0
    2.5522   -1.9483    1.2217 H   0  0  0  0  0  0  0  0  0  0  0  0
    5.0499   -2.0292    1.0241 H   0  0  0  0  0  0  0  0  0  0  0  0
    7.1485   -0.8629    0.8317 H   0  0  0  0  0  0  0  0  0  0  0  0
    5.0021    2.5977   -0.5055 H   0  0  0  0  0  0  0  0  0  0  0  0
    2.9371    1.4202   -0.2248 H   0  0  0  0  0  0  0  0  0  0  0  0
   -0.3573    2.4115   -2.5483 H   0  0  0  0  0  0  0  0  0  0  0  0
    0.9439    1.4515   -3.2894 H   0  0  0  0  0  0  0  0  0  0  0  0
  1  2  1  0
  2  3  1  0
  3  4  1  0
  4  5  1  0
  5  6  1  0
  6  7  1  0
  6  8  1  0
  8  9  1  0
  5 10  1  0
 10 11  1  0
 11 12  2  0
 12 13  1  0
 13 14  2  0
 14 15  1  0
 15 16  1  0
 16 17  2  0
 17 18  1  0
 18 19  2  0
 19 20  1  0
 20 21  2  0
 19 22  1  0
 22 23  1  0
 22 24  1  0
 22 25  1  0
 14 26  1  0
 26 27  2  0
 27 28  1  0
 27 29  1  0
 29 30  2  0
  8  3  1  0
 30 10  1  0
 30 13  1  0
 21 16  1  0
  1 31  1  0
  2 32  1  0
  2 33  1  0
  3 34  1  1
  5 35  1  1
  6 36  1  1
  7 37  1  0
  8 38  1  6
  9 39  1  0
 11 40  1  0
 15 41  1  0
 17 42  1  0
 18 43  1  0
 20 44  1  0
 21 45  1  0
 28 46  1  0
 28 47  1  0
M  END
$$$$
[H]c1c([H])c(C(=O)N([H])[C@]2([H])C([H])([H])C([H])([H])[C@@]([H])(N([H])C(=O)OC(C([H])([H])[H])(C([H])([H])[H])C([H])([H])[H])C([H])([H])C2([H])[H])c([H])c(-c2c([H])c(Cl)c(Cl)c([H])c2Cl)c1F
     RDKit          3D

 59 61  0  0  0  0  0  0  0  0999 V2000
   -7.7954   -0.1643    1.9161 C   0  0  0  0  0  0  0  0  0  0  0  0
   -7.2023    0.5143    0.6714 C   0  0  0  0  0  0  0  0  0  0  0  0
   -7.6342    1.9391    0.7034 C   0  0  0  0  0  0  0  0  0  0  0  0
   -7.8408   -0.1607   -0.5183 C   0  0  0  0  0  0  0  0  0  0  0  0
   -5.8367    0.2945    0.7050 O   0  0  0  0  0  0  0  0  0  0  0  0
   -4.9438    0.7451   -0.2377 C   0  0  0  0  0  0  0  0  0  0  0  0
   -5.4049    1.4037   -1.1955 O   0  0  0  0  0  0  0  0  0  0  0  0
   -3.5695    0.4461   -0.0793 N   0  0  0  0  0  0  0  0  0  0  0  0
   -2.5900    0.8972   -1.0456 C   0  0  1  0  0  0  0  0  0  0  0  0
   -1.6233    1.7974   -0.3395 C   0  0  0  0  0  0  0  0  0  0  0  0
   -0.2363    1.2427   -0.3981 C   0  0  0  0  0  0  0  0  0  0  0  0
   -0.1585   -0.1996   -0.0013 C   0  0  1  0  0  0  0  0  0  0  0  0
   -1.1462   -1.0642   -0.7100 C   0  0  0  0  0  0  0  0  0  0  0  0
   -1.8955   -0.2596   -1.7360 C   0  0  0  0  0  0  0  0  0  0  0  0
    1.1903   -0.6603   -0.3477 N   0  0  0  0  0  0  0  0  0  0  0  0
    2.0640   -1.1018    0.6621 C   0  0  0  0  0  0  0  0  0  0  0  0
    1.6928   -1.1046    1.8681 O   0  0  0  0  0  0  0  0  0  0  0  0
    3.4150   -1.5706    0.3932 C   0  0  0  0  0  0  0  0  0  0  0  0
    3.6188   -2.8911    0.0549 C   0  0  0  0  0  0  0  0  0  0  0  0
    4.8937   -3.3603   -0.2047 C   0  0  0  0  0  0  0  0  0  0  0  0
    5.9761   -2.4794   -0.1200 C   0  0  0  0  0  0  0  0  0  0  0  0
    7.2090   -2.9626   -0.3767 F   0  0  0  0  0  0  0  0  0  0  0  0
    5.7908   -1.1488    0.2187 C   0  0  0  0  0  0  0  0  0  0  0  0
    4.5128   -0.7063    0.4719 C   0  0  0  0  0  0  0  0  0  0  0  0
    6.9257   -0.2439    0.2909 C   0  0  0  0  0  0  0  0  0  0  0  0
    7.8587   -0.1958   -0.7533 C   0  0  0  0  0  0  0  0  0  0  0  0
    8.9416    0.6570   -0.7266 C   0  0  0  0  0  0  0  0  0  0  0  0
   10.1033    0.6981   -2.0557 Cl  0  0  0  0  0  0  0  0  0  0  0  0
    9.1444    1.5016    0.3425 C   0  0  0  0  0  0  0  0  0  0  0  0
   10.5339    2.5675    0.3316 Cl  0  0  0  0  0  0  0  0  0  0  0  0
    8.2433    1.4735    1.3798 C   0  0  0  0  0  0  0  0  0  0  0  0
    7.1468    0.6045    1.3451 C   0  0  0  0  0  0  0  0  0  0  0  0
    6.0289    0.5859    2.6966 Cl  0  0  0  0  0  0  0  0  0  0  0  0
   -7.5263   -1.2255    1.8307 H   0  0  0  0  0  0  0  0  0  0  0  0
   -7.2336    0.2819    2.7733 H   0  0  0  0  0  0  0  0  0  0  0  0
   -8.8764    0.0275    1.9941 H   0  0  0  0  0  0  0  0  0  0  0  0
   -7.0104    2.5945    1.3343 H   0  0  0  0  0  0  0  0  0  0  0  0
   -8.6571    1.9674    1.1693 H   0  0  0  0  0  0  0  0  0  0  0  0
   -7.8026    2.3648   -0.3289 H   0  0  0  0  0  0  0  0  0  0  0  0
   -8.9075   -0.4063   -0.3552 H   0  0  0  0  0  0  0  0  0  0  0  0
   -7.2542   -1.0928   -0.7024 H   0  0  0  0  0  0  0  0  0  0  0  0
   -7.6768    0.4755   -1.4117 H   0  0  0  0  0  0  0  0  0  0  0  0
   -3.2168   -0.1065    0.7345 H   0  0  0  0  0  0  0  0  0  0  0  0
   -3.1073    1.4663   -1.8606 H   0  0  0  0  0  0  0  0  0  0  0  0
   -1.5935    2.7903   -0.8555 H   0  0  0  0  0  0  0  0  0  0  0  0
   -1.9373    2.0009    0.7087 H   0  0  0  0  0  0  0  0  0  0  0  0
    0.3975    1.8728    0.2767 H   0  0  0  0  0  0  0  0  0  0  0  0
    0.1252    1.3281   -1.4580 H   0  0  0  0  0  0  0  0  0  0  0  0
   -0.2975   -0.2780    1.0987 H   0  0  0  0  0  0  0  0  0  0  0  0
   -0.6431   -1.9044   -1.2643 H   0  0  0  0  0  0  0  0  0  0  0  0
   -1.9159   -1.5147   -0.0370 H   0  0  0  0  0  0  0  0  0  0  0  0
   -2.6931   -0.8575   -2.2369 H   0  0  0  0  0  0  0  0  0  0  0  0
   -1.2545    0.1266   -2.5350 H   0  0  0  0  0  0  0  0  0  0  0  0
    1.4663   -0.6466   -1.3508 H   0  0  0  0  0  0  0  0  0  0  0  0
    2.7522   -3.5430    0.0002 H   0  0  0  0  0  0  0  0  0  0  0  0
    5.0728   -4.4125   -0.4757 H   0  0  0  0  0  0  0  0  0  0  0  0
    4.2749    0.3215    0.7359 H   0  0  0  0  0  0  0  0  0  0  0  0
    7.7093   -0.8554   -1.6016 H   0  0  0  0  0  0  0  0  0  0  0  0
    8.3928    2.1312    2.2237 H   0  0  0  0  0  0  0  0  0  0  0  0
  1  2  1  0
  2  3  1  0
  2  4  1  0
  2  5  1  0
  5  6  1  0
  6  7  2  0
  6  8  1  0
  8  9  1  0
  9 10  1  0
 10 11  1  0
 11 12  1  0
 12 13  1  0
 13 14  1  0
 12 15  1  0
 15 16  1  0
 16 17  2  0
 16 18  1  0
 18 19  2  0
 19 20  1  0
 20 21  2  0
 21 22  1  0
 21 23  1  0
 23 24  2  0
 23 25  1  0
 25 26  2  0
 26 27  1  0
 27 28  1  0
 27 29  2  0
 29 30  1  0
 29 31  1  0
 31 32  2  0
 32 33  1  0
 14  9  1  0
 24 18  1  0
 32 25  1  0
  1 34  1  0
  1 35  1  0
  1 36  1  0
  3 37  1  0
  3 38  1  0
  3 39  1  0
  4 40  1  0
  4 41  1  0
  4 42  1  0
  8 43  1  0
  9 44  1  6
 10 45  1  0
 10 46  1  0
 11 47  1  0
 11 48  1  0
 12 49  1  1
 13 50  1  0
 13 51  1  0
 14 52  1  0
 14 53  1  0
 15 54  1  0
 19 55  1  0
 20 56  1  0
 24 57  1  0
 26 58  1  0
 31 59  1  0
M  END
$$$$
[H]c1nc2c([H])c(OC([H])([H])C([H])([H])C([H])([H])N3C([H])([H])C([H])([H])OC([H])([H])C3([H])[H])c(OC([H])([H])[H])c([H])c2c(Oc2c([H])c([H])c(N([H])C(=O)c3nn(C([H])([H])[H])c4c([H])c([H])c([H])c([H])c4c3=O)c([H])c2F)c1[H]
     RDKit          3D

 77 82  0  0  0  0  0  0  0  0999 V2000
   -2.8522   -0.0722   -4.1368 C   0  0  0  0  0  0  0  0  0  0  0  0
   -3.8272   -0.2968   -3.1624 O   0  0  0  0  0  0  0  0  0  0  0  0
   -3.5037   -0.4298   -1.8000 C   0  0  0  0  0  0  0  0  0  0  0  0
   -2.1720   -0.3344   -1.4122 C   0  0  0  0  0  0  0  0  0  0  0  0
   -1.7822   -0.4552   -0.1025 C   0  0  0  0  0  0  0  0  0  0  0  0
   -0.4332   -0.3761    0.2763 C   0  0  0  0  0  0  0  0  0  0  0  0
    0.4915   -0.1541   -0.7060 O   0  0  0  0  0  0  0  0  0  0  0  0
    1.8510   -0.0187   -0.5042 C   0  0  0  0  0  0  0  0  0  0  0  0
    2.7384   -0.9456   -1.0423 C   0  0  0  0  0  0  0  0  0  0  0  0
    4.1168   -0.8218   -0.8430 C   0  0  0  0  0  0  0  0  0  0  0  0
    4.6517    0.2015   -0.1200 C   0  0  0  0  0  0  0  0  0  0  0  0
    6.0343    0.3631    0.1015 N   0  0  0  0  0  0  0  0  0  0  0  0
    7.1057   -0.1672   -0.6220 C   0  0  0  0  0  0  0  0  0  0  0  0
    6.9234   -0.9006   -1.6455 O   0  0  0  0  0  0  0  0  0  0  0  0
    8.4740    0.1228   -0.1954 C   0  0  0  0  0  0  0  0  0  0  0  0
    8.7084    0.8765    0.8850 N   0  0  0  0  0  0  0  0  0  0  0  0
    9.9504    1.1447    1.2971 N   0  0  0  0  0  0  0  0  0  0  0  0
   10.1772    1.9651    2.4762 C   0  0  0  0  0  0  0  0  0  0  0  0
   11.0061    0.6639    0.6370 C   0  0  0  0  0  0  0  0  0  0  0  0
   12.3062    0.9208    1.0433 C   0  0  0  0  0  0  0  0  0  0  0  0
   13.4070    0.4163    0.3575 C   0  0  0  0  0  0  0  0  0  0  0  0
   13.2186   -0.3639   -0.7610 C   0  0  0  0  0  0  0  0  0  0  0  0
   11.9381   -0.6212   -1.1667 C   0  0  0  0  0  0  0  0  0  0  0  0
   10.8570   -0.1173   -0.4813 C   0  0  0  0  0  0  0  0  0  0  0  0
    9.5440   -0.3803   -0.8876 C   0  0  0  0  0  0  0  0  0  0  0  0
    9.3434   -1.0903   -1.9051 O   0  0  0  0  0  0  0  0  0  0  0  0
    3.7567    1.1327    0.4177 C   0  0  0  0  0  0  0  0  0  0  0  0
    2.3901    1.0163    0.2236 C   0  0  0  0  0  0  0  0  0  0  0  0
    1.5666    1.9733    0.7388 F   0  0  0  0  0  0  0  0  0  0  0  0
   -0.0870   -0.5217    1.5990 C   0  0  0  0  0  0  0  0  0  0  0  0
   -1.1165   -0.7428    2.5096 C   0  0  0  0  0  0  0  0  0  0  0  0
   -2.3978   -0.8126    2.1159 N   0  0  0  0  0  0  0  0  0  0  0  0
   -2.7664   -0.6753    0.8296 C   0  0  0  0  0  0  0  0  0  0  0  0
   -4.1126   -0.7730    0.4550 C   0  0  0  0  0  0  0  0  0  0  0  0
   -4.4851   -0.6514   -0.8626 C   0  0  0  0  0  0  0  0  0  0  0  0
   -5.8146   -0.7558   -1.1981 O   0  0  0  0  0  0  0  0  0  0  0  0
   -6.8516   -0.9714   -0.2876 C   0  0  0  0  0  0  0  0  0  0  0  0
   -8.1612   -1.0633   -1.0664 C   0  0  0  0  0  0  0  0  0  0  0  0
   -9.3131   -1.2701   -0.1026 C   0  0  0  0  0  0  0  0  0  0  0  0
   -9.4255   -0.1427    0.8175 N   0  0  0  0  0  0  0  0  0  0  0  0
   -9.8532    1.0527    0.1054 C   0  0  0  0  0  0  0  0  0  0  0  0
  -11.2905    1.3941    0.4780 C   0  0  0  0  0  0  0  0  0  0  0  0
  -11.4205    1.6690    1.8237 O   0  0  0  0  0  0  0  0  0  0  0  0
  -10.8522    0.6954    2.6361 C   0  0  0  0  0  0  0  0  0  0  0  0
  -10.3681   -0.5121    1.8426 C   0  0  0  0  0  0  0  0  0  0  0  0
   -2.1070   -0.8657   -4.2434 H   0  0  0  0  0  0  0  0  0  0  0  0
   -3.3918    0.0354   -5.1082 H   0  0  0  0  0  0  0  0  0  0  0  0
   -2.3441    0.8973   -3.9380 H   0  0  0  0  0  0  0  0  0  0  0  0
   -1.3894   -0.1596   -2.1408 H   0  0  0  0  0  0  0  0  0  0  0  0
    2.3005   -1.7442   -1.6083 H   0  0  0  0  0  0  0  0  0  0  0  0
    4.7357   -1.5796   -1.2821 H   0  0  0  0  0  0  0  0  0  0  0  0
    6.3083    0.9740    0.9385 H   0  0  0  0  0  0  0  0  0  0  0  0
   10.6931    2.9233    2.1995 H   0  0  0  0  0  0  0  0  0  0  0  0
    9.2324    2.2260    2.9759 H   0  0  0  0  0  0  0  0  0  0  0  0
   10.8208    1.3895    3.1950 H   0  0  0  0  0  0  0  0  0  0  0  0
   12.4452    1.5392    1.9291 H   0  0  0  0  0  0  0  0  0  0  0  0
   14.3945    0.6288    0.6932 H   0  0  0  0  0  0  0  0  0  0  0  0
   14.0399   -0.7855   -1.3392 H   0  0  0  0  0  0  0  0  0  0  0  0
   11.7188   -1.2326   -2.0458 H   0  0  0  0  0  0  0  0  0  0  0  0
    4.1822    1.9458    0.9914 H   0  0  0  0  0  0  0  0  0  0  0  0
    0.9447   -0.4874    1.9381 H   0  0  0  0  0  0  0  0  0  0  0  0
   -0.8102   -0.8524    3.5514 H   0  0  0  0  0  0  0  0  0  0  0  0
   -4.7948   -0.9476    1.2754 H   0  0  0  0  0  0  0  0  0  0  0  0
   -6.9731   -0.1758    0.4728 H   0  0  0  0  0  0  0  0  0  0  0  0
   -6.7268   -1.9242    0.2760 H   0  0  0  0  0  0  0  0  0  0  0  0
   -8.1549   -1.9789   -1.7206 H   0  0  0  0  0  0  0  0  0  0  0  0
   -8.3115   -0.2056   -1.7489 H   0  0  0  0  0  0  0  0  0  0  0  0
  -10.2425   -1.4497   -0.6456 H   0  0  0  0  0  0  0  0  0  0  0  0
   -9.0585   -2.1533    0.5154 H   0  0  0  0  0  0  0  0  0  0  0  0
   -9.2261    1.9287    0.3287 H   0  0  0  0  0  0  0  0  0  0  0  0
   -9.8522    0.8994   -0.9955 H   0  0  0  0  0  0  0  0  0  0  0  0
  -11.5401    2.3195   -0.1004 H   0  0  0  0  0  0  0  0  0  0  0  0
  -11.9498    0.5675    0.1439 H   0  0  0  0  0  0  0  0  0  0  0  0
   -9.9860    1.0604    3.2228 H   0  0  0  0  0  0  0  0  0  0  0  0
  -11.6075    0.2880    3.3700 H   0  0  0  0  0  0  0  0  0  0  0  0
  -11.2128   -1.1083    1.4675 H   0  0  0  0  0  0  0  0  0  0  0  0
   -9.8068   -1.1431    2.5875 H   0  0  0  0  0  0  0  0  0  0  0  0
  1  2  1  0
  2  3  1  0
  3  4  2  0
  4  5  1  0
  5  6  2  0
  6  7  1  0
  7  8  1  0
  8  9  2  0
  9 10  1  0
 10 11  2  0
 11 12  1  0
 12 13  1  0
 13 14  2  0
 13 15  1  0
 15 16  2  0
 16 17  1  0
 17 18  1  0
 17 19  1  0
 19 20  2  0
 20 21  1  0
 21 22  2  0
 22 23  1  0
 23 24  2  0
 24 25  1  0
 25 26  2  0
 11 27  1  0
 27 28  2  0
 28 29  1  0
  6 30  1  0
 30 31  2  0
 31 32  1  0
 32 33  2  0
 33 34  1  0
 34 35  2  0
 35 36  1  0
 36 37  1  0
 37 38  1  0
 38 39  1  0
 39 40  1  0
 40 41  1  0
 41 42  1  0
 42 43  1  0
 43 44  1  0
 44 45  1  0
 35  3  1  0
 45 40  1  0
 33  5  1  0
 28  8  1  0
 25 15  1  0
 24 19  1  0
  1 46  1  0
  1 47  1  0
  1 48  1  0
  4 49  1  0
  9 50  1  0
 10 51  1  0
 12 52  1  0
 18 53  1  0
 18 54  1  0
 18 55  1  0
 20 56  1  0
 21 57  1  0
 22 58  1  0
 23 59  1  0
 27 60  1  0
 30 61  1  0
 31 62  1  0
 34 63  1  0
 37 64  1  0
 37 65  1  0
 38 66  1  0
 38 67  1  0
 39 68  1  0
 39 69  1  0
 41 70  1  0
 41 71  1  0
 42 72  1  0
 42 73  1  0
 44 74  1  0
 44 75  1  0
 45 76  1  0
 45 77  1  0
M  END
$$$$
[H]c1nc([H])c(C(=O)N2C([H])([H])C([H])([H])N(c3c([H])c([H])c(N([H])S(=O)(=O)c4c([H])c([H])c(C(F)(F)F)c([H])c4[H])c([H])c3[H])C([H])([H])C2([H])[H])c([H])c1[H]
     RDKit          3D

 55 58  0  0  0  0  0  0  0  0999 V2000
  -10.1117    2.0287   -0.1187 F   0  0  0  0  0  0  0  0  0  0  0  0
   -8.8770    2.5107    0.2425 C   0  0  0  0  0  0  0  0  0  0  0  0
   -8.5484    3.7040   -0.3488 F   0  0  0  0  0  0  0  0  0  0  0  0
   -8.9428    2.7467    1.6061 F   0  0  0  0  0  0  0  0  0  0  0  0
   -7.8606    1.4510   -0.0230 C   0  0  0  0  0  0  0  0  0  0  0  0
   -7.1809    0.9064    1.0407 C   0  0  0  0  0  0  0  0  0  0  0  0
   -6.2541   -0.0583    0.8366 C   0  0  0  0  0  0  0  0  0  0  0  0
   -5.9800   -0.5055   -0.4389 C   0  0  0  0  0  0  0  0  0  0  0  0
   -6.6169   -0.0071   -1.5378 C   0  0  0  0  0  0  0  0  0  0  0  0
   -7.5694    0.9876   -1.2884 C   0  0  0  0  0  0  0  0  0  0  0  0
   -4.7757   -1.8069   -0.5348 S   0  0  0  0  0  0  0  0  0  0  0  0
   -5.4592   -3.1313   -0.4482 O   0  0  0  0  0  0  0  0  0  0  0  0
   -4.1155   -1.6446   -1.8677 O   0  0  0  0  0  0  0  0  0  0  0  0
   -3.6340   -1.5752    0.7293 N   0  0  0  0  0  0  0  0  0  0  0  0
   -2.2767   -1.2805    0.5385 C   0  0  0  0  0  0  0  0  0  0  0  0
   -1.4048   -2.1387   -0.0733 C   0  0  0  0  0  0  0  0  0  0  0  0
   -0.0410   -1.8358   -0.1663 C   0  0  0  0  0  0  0  0  0  0  0  0
    0.4484   -0.6753    0.3502 C   0  0  0  0  0  0  0  0  0  0  0  0
   -0.4391    0.1990    0.9734 C   0  0  0  0  0  0  0  0  0  0  0  0
   -1.7639   -0.0792    1.0726 C   0  0  0  0  0  0  0  0  0  0  0  0
    1.8163   -0.3596    0.2688 N   0  0  0  0  0  0  0  0  0  0  0  0
    2.1387    1.0693    0.1359 C   0  0  0  0  0  0  0  0  0  0  0  0
    3.1489    1.1703   -0.9880 C   0  0  0  0  0  0  0  0  0  0  0  0
    4.3457    0.4098   -0.5498 N   0  0  0  0  0  0  0  0  0  0  0  0
    4.1643   -0.9848   -0.2847 C   0  0  0  0  0  0  0  0  0  0  0  0
    2.8429   -1.3324    0.3420 C   0  0  0  0  0  0  0  0  0  0  0  0
    5.5468    1.1390   -0.3813 C   0  0  0  0  0  0  0  0  0  0  0  0
    5.4105    2.4355   -0.5284 O   0  0  0  0  0  0  0  0  0  0  0  0
    6.8633    0.6904   -0.0796 C   0  0  0  0  0  0  0  0  0  0  0  0
    7.3209   -0.5926   -0.2065 C   0  0  0  0  0  0  0  0  0  0  0  0
    8.6103   -0.9138    0.1957 C   0  0  0  0  0  0  0  0  0  0  0  0
    9.4439    0.0398    0.7194 C   0  0  0  0  0  0  0  0  0  0  0  0
    8.9787    1.2917    0.8332 N   0  0  0  0  0  0  0  0  0  0  0  0
    7.7596    1.6443    0.4649 C   0  0  0  0  0  0  0  0  0  0  0  0
   -7.3745    1.2456    2.0416 H   0  0  0  0  0  0  0  0  0  0  0  0
   -5.7332   -0.4630    1.6894 H   0  0  0  0  0  0  0  0  0  0  0  0
   -6.4029   -0.3536   -2.5365 H   0  0  0  0  0  0  0  0  0  0  0  0
   -8.1003    1.4039   -2.1290 H   0  0  0  0  0  0  0  0  0  0  0  0
   -4.0428   -1.6803    1.7132 H   0  0  0  0  0  0  0  0  0  0  0  0
   -1.7650   -3.0913   -0.5064 H   0  0  0  0  0  0  0  0  0  0  0  0
    0.6001   -2.5795   -0.6623 H   0  0  0  0  0  0  0  0  0  0  0  0
   -0.0194    1.1196    1.3788 H   0  0  0  0  0  0  0  0  0  0  0  0
   -2.4905    0.5754    1.5461 H   0  0  0  0  0  0  0  0  0  0  0  0
    1.2184    1.6107   -0.1526 H   0  0  0  0  0  0  0  0  0  0  0  0
    2.5756    1.4719    1.0434 H   0  0  0  0  0  0  0  0  0  0  0  0
    3.3812    2.2199   -1.1791 H   0  0  0  0  0  0  0  0  0  0  0  0
    2.7486    0.6526   -1.8787 H   0  0  0  0  0  0  0  0  0  0  0  0
    4.9158   -1.3291    0.4973 H   0  0  0  0  0  0  0  0  0  0  0  0
    4.3224   -1.5204   -1.2633 H   0  0  0  0  0  0  0  0  0  0  0  0
    2.5301   -2.3178   -0.1166 H   0  0  0  0  0  0  0  0  0  0  0  0
    3.0334   -1.6114    1.4389 H   0  0  0  0  0  0  0  0  0  0  0  0
    6.7348   -1.3738   -0.6553 H   0  0  0  0  0  0  0  0  0  0  0  0
    8.9537   -1.9491    0.0779 H   0  0  0  0  0  0  0  0  0  0  0  0
   10.4716   -0.2105    1.0422 H   0  0  0  0  0  0  0  0  0  0  0  0
    7.4557    2.6776    0.5887 H   0  0  0  0  0  0  0  0  0  0  0  0
  1  2  1  0
  2  3  1  0
  2  4  1  0
  2  5  1  0
  5  6  2  0
  6  7  1  0
  7  8  2  0
  8  9  1  0
  9 10  2  0
  8 11  1  0
 11 12  2  0
 11 13  2  0
 11 14  1  0
 14 15  1  0
 15 16  2  0
 16 17  1  0
 17 18  2  0
 18 19  1  0
 19 20  2  0
 18 21  1  0
 21 22  1  0
 22 23  1  0
 23 24  1  0
 24 25  1  0
 25 26  1  0
 24 27  1  0
 27 28  2  0
 27 29  1  0
 29 30  2  0
 30 31  1  0
 31 32  2  0
 32 33  1  0
 33 34  2  0
 10  5  1  0
 20 15  1  0
 26 21  1  0
 34 29  1  0
  6 35  1  0
  7 36  1  0
  9 37  1  0
 10 38  1  0
 14 39  1  0
 16 40  1  0
 17 41  1  0
 19 42  1  0
 20 43  1  0
 22 44  1  0
 22 45  1  0
 23 46  1  0
 23 47  1  0
 25 48  1  0
 25 49  1  0
 26 50  1  0
 26 51  1  0
 30 52  1  0
 31 53  1  0
 32 54  1  0
 34 55  1  0
M  END
$$$$
[H]c1c([H])c([H])c(-c2c([H])c([H])c3c(nc(-c4c([H])c([H])c([H])c(C(F)(F)F)c4[H])n3[H])c2[H])c([H])c1[H]
     RDKit          3D

 38 41  0  0  0  0  0  0  0  0999 V2000
    6.7649    1.9167    0.4969 F   0  0  0  0  0  0  0  0  0  0  0  0
    6.6177    0.8105   -0.3205 C   0  0  0  0  0  0  0  0  0  0  0  0
    7.7882    0.0809   -0.1621 F   0  0  0  0  0  0  0  0  0  0  0  0
    6.4433    1.1983   -1.6266 F   0  0  0  0  0  0  0  0  0  0  0  0
    5.4892   -0.0414    0.1505 C   0  0  0  0  0  0  0  0  0  0  0  0
    5.7450   -1.2556    0.7869 C   0  0  0  0  0  0  0  0  0  0  0  0
    4.7399   -2.0637    1.2205 C   0  0  0  0  0  0  0  0  0  0  0  0
    3.4244   -1.6555    1.0181 C   0  0  0  0  0  0  0  0  0  0  0  0
    3.1152   -0.4645    0.3960 C   0  0  0  0  0  0  0  0  0  0  0  0
    4.1693    0.3187   -0.0246 C   0  0  0  0  0  0  0  0  0  0  0  0
    1.7210   -0.0492    0.1891 C   0  0  0  0  0  0  0  0  0  0  0  0
    0.6487   -0.7881    0.5147 N   0  0  0  0  0  0  0  0  0  0  0  0
   -0.4895   -0.1336    0.1957 C   0  0  0  0  0  0  0  0  0  0  0  0
   -1.8298   -0.4792    0.3436 C   0  0  0  0  0  0  0  0  0  0  0  0
   -2.7769    0.4112   -0.0717 C   0  0  0  0  0  0  0  0  0  0  0  0
   -2.4089    1.6223   -0.6259 C   0  0  0  0  0  0  0  0  0  0  0  0
   -1.0715    1.9559   -0.7690 C   0  0  0  0  0  0  0  0  0  0  0  0
   -0.1003    1.0607   -0.3492 C   0  0  0  0  0  0  0  0  0  0  0  0
    1.2476    1.0841   -0.3412 N   0  0  0  0  0  0  0  0  0  0  0  0
   -4.1896    0.0421    0.0928 C   0  0  0  0  0  0  0  0  0  0  0  0
   -4.6278   -1.2583   -0.0015 C   0  0  0  0  0  0  0  0  0  0  0  0
   -5.9495   -1.5824    0.1772 C   0  0  0  0  0  0  0  0  0  0  0  0
   -6.8848   -0.6029    0.4588 C   0  0  0  0  0  0  0  0  0  0  0  0
   -6.4540    0.6909    0.5531 C   0  0  0  0  0  0  0  0  0  0  0  0
   -5.1372    1.0114    0.3745 C   0  0  0  0  0  0  0  0  0  0  0  0
    6.7944   -1.5492    0.9267 H   0  0  0  0  0  0  0  0  0  0  0  0
    4.9555   -2.9961    1.7080 H   0  0  0  0  0  0  0  0  0  0  0  0
    2.5876   -2.2496    1.3455 H   0  0  0  0  0  0  0  0  0  0  0  0
    4.0019    1.2869   -0.5304 H   0  0  0  0  0  0  0  0  0  0  0  0
   -2.0647   -1.4549    0.7894 H   0  0  0  0  0  0  0  0  0  0  0  0
   -3.2004    2.2909   -0.9371 H   0  0  0  0  0  0  0  0  0  0  0  0
   -0.7647    2.8954   -1.2011 H   0  0  0  0  0  0  0  0  0  0  0  0
    1.8259    1.8578   -0.6924 H   0  0  0  0  0  0  0  0  0  0  0  0
   -3.9283   -2.0437   -0.2182 H   0  0  0  0  0  0  0  0  0  0  0  0
   -6.3431   -2.6018    0.1118 H   0  0  0  0  0  0  0  0  0  0  0  0
   -7.9262   -0.8305    0.6033 H   0  0  0  0  0  0  0  0  0  0  0  0
   -7.1255    1.5370    0.7718 H   0  0  0  0  0  0  0  0  0  0  0  0
   -4.8071    2.0284    0.4454 H   0  0  0  0  0  0  0  0  0  0  0  0
  1  2  1  0
  2  3  1  0
  2  4  1  0
  2  5  1  0
  5  6  2  0
  6  7  1  0
  7  8  2  0
  8  9  1  0
  9 10  2  0
  9 11  1  0
 11 12  2  0
 12 13  1  0
 13 14  2  0
 14 15  1  0
 15 16  2  0
 16 17  1  0
 17 18  2  0
 18 19  1  0
 15 20  1  0
 20 21  2  0
 21 22  1  0
 22 23  2  0
 23 24  1  0
 24 25  2  0
 10  5  1  0
 19 11  1  0
 25 20  1  0
 18 13  1  0
  6 26  1  0
  7 27  1  0
  8 28  1  0
 10 29  1  0
 14 30  1  0
 16 31  1  0
 17 32  1  0
 19 33  1  0
 21 34  1  0
 22 35  1  0
 23 36  1  0
 24 37  1  0
 25 38  1  0
M  END
$$$$
[H]c1c([H])c([H])c(C(=O)N2C([H])([H])C([H])([H])N(C(=O)[C@@]([H])(N([H])C(=O)c3c([H])c([H])c(-c4c([H])c([H])c([H])c([H])c4[H])c([H])c3[H])C([H])([H])C([H])(C([H])([H])[H])C([H])([H])[H])C([H])([H])C2([H])[H])c([H])c1[H]
     RDKit          3D

 69 72  0  0  0  0  0  0  0  0999 V2000
    0.7880   -2.7781    0.1660 C   0  0  0  0  0  0  0  0  0  0  0  0
   -0.0115   -2.2950    1.3171 C   0  0  0  0  0  0  0  0  0  0  0  0
    0.3804   -3.1652    2.5236 C   0  0  0  0  0  0  0  0  0  0  0  0
    0.2077   -0.8843    1.7306 C   0  0  0  0  0  0  0  0  0  0  0  0
   -0.0862    0.1707    0.7172 C   0  0  2  0  0  0  0  0  0  0  0  0
   -1.5070    0.0655    0.3124 N   0  0  0  0  0  0  0  0  0  0  0  0
   -2.4081    1.0937    0.5863 C   0  0  0  0  0  0  0  0  0  0  0  0
   -1.9762    2.1334    1.1950 O   0  0  0  0  0  0  0  0  0  0  0  0
   -3.8204    1.0625    0.2230 C   0  0  0  0  0  0  0  0  0  0  0  0
   -4.6223    2.1710    0.4034 C   0  0  0  0  0  0  0  0  0  0  0  0
   -5.9595    2.1466    0.0669 C   0  0  0  0  0  0  0  0  0  0  0  0
   -6.5805    1.0317   -0.4650 C   0  0  0  0  0  0  0  0  0  0  0  0
   -5.7733   -0.0736   -0.6431 C   0  0  0  0  0  0  0  0  0  0  0  0
   -4.4329   -0.0519   -0.3066 C   0  0  0  0  0  0  0  0  0  0  0  0
   -7.9978    1.0330   -0.8113 C   0  0  0  0  0  0  0  0  0  0  0  0
   -8.5669    2.2188   -1.2458 C   0  0  0  0  0  0  0  0  0  0  0  0
   -9.8994    2.3026   -1.5894 C   0  0  0  0  0  0  0  0  0  0  0  0
  -10.6910    1.1805   -1.5005 C   0  0  0  0  0  0  0  0  0  0  0  0
  -10.1752   -0.0239   -1.0745 C   0  0  0  0  0  0  0  0  0  0  0  0
   -8.8314   -0.0564   -0.7407 C   0  0  0  0  0  0  0  0  0  0  0  0
    0.7886    0.2488   -0.4176 C   0  0  0  0  0  0  0  0  0  0  0  0
    0.3276    0.0245   -1.5979 O   0  0  0  0  0  0  0  0  0  0  0  0
    2.1556    0.5663   -0.3677 N   0  0  0  0  0  0  0  0  0  0  0  0
    2.8108    0.8704    0.8821 C   0  0  0  0  0  0  0  0  0  0  0  0
    3.9998    1.8029    0.5627 C   0  0  0  0  0  0  0  0  0  0  0  0
    4.9588    0.8557   -0.1005 N   0  0  0  0  0  0  0  0  0  0  0  0
    4.4017    0.1366   -1.1741 C   0  0  0  0  0  0  0  0  0  0  0  0
    2.9886    0.6272   -1.5631 C   0  0  0  0  0  0  0  0  0  0  0  0
    6.2362    0.8413    0.4110 C   0  0  0  0  0  0  0  0  0  0  0  0
    6.4792    1.6947    1.4084 O   0  0  0  0  0  0  0  0  0  0  0  0
    7.3732    0.0447    0.0403 C   0  0  0  0  0  0  0  0  0  0  0  0
    7.3326   -0.9874   -0.8470 C   0  0  0  0  0  0  0  0  0  0  0  0
    8.5036   -1.6979   -1.1804 C   0  0  0  0  0  0  0  0  0  0  0  0
    9.7064   -1.3879   -0.6366 C   0  0  0  0  0  0  0  0  0  0  0  0
    9.7813   -0.3552    0.2605 C   0  0  0  0  0  0  0  0  0  0  0  0
    8.6441    0.3390    0.5870 C   0  0  0  0  0  0  0  0  0  0  0  0
    0.1790   -2.7005   -0.7822 H   0  0  0  0  0  0  0  0  0  0  0  0
    0.8742   -3.9106    0.2923 H   0  0  0  0  0  0  0  0  0  0  0  0
    1.7962   -2.3666    0.0801 H   0  0  0  0  0  0  0  0  0  0  0  0
   -1.0817   -2.5424    1.1332 H   0  0  0  0  0  0  0  0  0  0  0  0
   -0.4773   -3.2890    3.2185 H   0  0  0  0  0  0  0  0  0  0  0  0
    0.6195   -4.2102    2.1772 H   0  0  0  0  0  0  0  0  0  0  0  0
    1.2622   -2.7698    3.0367 H   0  0  0  0  0  0  0  0  0  0  0  0
    1.2491   -0.7973    2.0735 H   0  0  0  0  0  0  0  0  0  0  0  0
   -0.3962   -0.7161    2.6743 H   0  0  0  0  0  0  0  0  0  0  0  0
   -0.0281    1.1663    1.2542 H   0  0  0  0  0  0  0  0  0  0  0  0
   -1.7891   -0.7980   -0.1765 H   0  0  0  0  0  0  0  0  0  0  0  0
   -4.1556    3.0657    0.8224 H   0  0  0  0  0  0  0  0  0  0  0  0
   -6.5807    3.0415    0.2203 H   0  0  0  0  0  0  0  0  0  0  0  0
   -6.2442   -0.9706   -1.0638 H   0  0  0  0  0  0  0  0  0  0  0  0
   -3.8057   -0.9449   -0.4553 H   0  0  0  0  0  0  0  0  0  0  0  0
   -7.9626    3.1352   -1.3289 H   0  0  0  0  0  0  0  0  0  0  0  0
  -10.3525    3.2155   -1.9270 H   0  0  0  0  0  0  0  0  0  0  0  0
  -11.7581    1.1846   -1.7592 H   0  0  0  0  0  0  0  0  0  0  0  0
  -10.8088   -0.9010   -1.0081 H   0  0  0  0  0  0  0  0  0  0  0  0
   -8.4070   -0.9976   -0.4027 H   0  0  0  0  0  0  0  0  0  0  0  0
    3.3053   -0.0581    1.2938 H   0  0  0  0  0  0  0  0  0  0  0  0
    2.1538    1.3696    1.6155 H   0  0  0  0  0  0  0  0  0  0  0  0
    3.6530    2.5404   -0.1711 H   0  0  0  0  0  0  0  0  0  0  0  0
    4.4139    2.2319    1.4634 H   0  0  0  0  0  0  0  0  0  0  0  0
    4.2364   -0.9186   -0.8928 H   0  0  0  0  0  0  0  0  0  0  0  0
    5.0433    0.2159   -2.0978 H   0  0  0  0  0  0  0  0  0  0  0  0
    2.6317   -0.0905   -2.3239 H   0  0  0  0  0  0  0  0  0  0  0  0
    3.0639    1.6448   -1.9624 H   0  0  0  0  0  0  0  0  0  0  0  0
    6.4440   -1.3414   -1.3250 H   0  0  0  0  0  0  0  0  0  0  0  0
    8.4075   -2.5143   -1.8981 H   0  0  0  0  0  0  0  0  0  0  0  0
   10.5956   -1.9543   -0.9123 H   0  0  0  0  0  0  0  0  0  0  0  0
   10.7328   -0.0902    0.7078 H   0  0  0  0  0  0  0  0  0  0  0  0
    8.6621    1.1650    1.2924 H   0  0  0  0  0  0  0  0  0  0  0  0
  1  2  1  0
  2  3  1  0
  2  4  1  0
  4  5  1  0
  5  6  1  0
  6  7  1  0
  7  8  2  0
  7  9  1  0
  9 10  2  0
 10 11  1  0
 11 12  2  0
 12 13  1  0
 13 14  2  0
 12 15  1  0
 15 16  2  0
 16 17  1  0
 17 18  2  0
 18 19  1  0
 19 20  2  0
  5 21  1  0
 21 22  2  0
 21 23  1  0
 23 24  1  0
 24 25  1  0
 25 26  1  0
 26 27  1  0
 27 28  1  0
 26 29  1  0
 29 30  2  0
 29 31  1  0
 31 32  2  0
 32 33  1  0
 33 34  2  0
 34 35  1  0
 35 36  2  0
 14  9  1  0
 20 15  1  0
 28 23  1  0
 36 31  1  0
  1 37  1  0
  1 38  1  0
  1 39  1  0
  2 40  1  0
  3 41  1  0
  3 42  1  0
  3 43  1  0
  4 44  1  0
  4 45  1  0
  5 46  1  1
  6 47  1  0
 10 48  1  0
 11 49  1  0
 13 50  1  0
 14 51  1  0
 16 52  1  0
 17 53  1  0
 18 54  1  0
 19 55  1  0
 20 56  1  0
 24 57  1  0
 24 58  1  0
 25 59  1  0
 25 60  1  0
 27 61  1  0
 27 62  1  0
 28 63  1  0
 28 64  1  0
 32 65  1  0
 33 66  1  0
 34 67  1  0
 35 68  1  0
 36 69  1  0
M  END
$$$$
[H]c1c([H])c(C#N)c([H])c(N([H])C(=O)c2c([H])c([H])c([H])c3c2nc(-c2c([H])c([H])c(N(C([H])([H])[H])C([H])([H])[H])c([H])c2[H])n3[H])c1[H]
     RDKit          3D

 48 51  0  0  0  0  0  0  0  0999 V2000
   -6.9911    1.6492   -1.0414 C   0  0  0  0  0  0  0  0  0  0  0  0
   -6.1913    1.4831    0.1389 N   0  0  0  0  0  0  0  0  0  0  0  0
   -6.6227    2.0008    1.4039 C   0  0  0  0  0  0  0  0  0  0  0  0
   -4.9466    0.7981    0.0611 C   0  0  0  0  0  0  0  0  0  0  0  0
   -3.7500    1.4403    0.2468 C   0  0  0  0  0  0  0  0  0  0  0  0
   -2.5718    0.7306    0.1650 C   0  0  0  0  0  0  0  0  0  0  0  0
   -2.5617   -0.6037   -0.0979 C   0  0  0  0  0  0  0  0  0  0  0  0
   -3.7438   -1.2597   -0.2868 C   0  0  0  0  0  0  0  0  0  0  0  0
   -4.9228   -0.5592   -0.2061 C   0  0  0  0  0  0  0  0  0  0  0  0
   -1.2869   -1.3438   -0.1625 C   0  0  0  0  0  0  0  0  0  0  0  0
   -0.0599   -0.8127    0.0439 N   0  0  0  0  0  0  0  0  0  0  0  0
    0.8160   -1.8258   -0.0936 C   0  0  0  0  0  0  0  0  0  0  0  0
    2.1898   -1.9163    0.0035 C   0  0  0  0  0  0  0  0  0  0  0  0
    2.8077   -3.1199   -0.1874 C   0  0  0  0  0  0  0  0  0  0  0  0
    2.1136   -4.2972   -0.4839 C   0  0  0  0  0  0  0  0  0  0  0  0
    0.7488   -4.1686   -0.5720 C   0  0  0  0  0  0  0  0  0  0  0  0
    0.0904   -2.9783   -0.3867 C   0  0  0  0  0  0  0  0  0  0  0  0
   -1.1928   -2.6546   -0.4231 N   0  0  0  0  0  0  0  0  0  0  0  0
    3.0067   -0.7202    0.3238 C   0  0  0  0  0  0  0  0  0  0  0  0
    2.6102   -0.0030    1.2632 O   0  0  0  0  0  0  0  0  0  0  0  0
    4.1540   -0.4342   -0.3994 N   0  0  0  0  0  0  0  0  0  0  0  0
    5.0847    0.6325   -0.2628 C   0  0  0  0  0  0  0  0  0  0  0  0
    6.0930    0.7971   -1.1912 C   0  0  0  0  0  0  0  0  0  0  0  0
    7.0217    1.7890   -1.1036 C   0  0  0  0  0  0  0  0  0  0  0  0
    6.9894    2.6886   -0.0585 C   0  0  0  0  0  0  0  0  0  0  0  0
    5.9979    2.5530    0.8850 C   0  0  0  0  0  0  0  0  0  0  0  0
    5.0629    1.5398    0.7798 C   0  0  0  0  0  0  0  0  0  0  0  0
    5.9359    3.4847    1.9996 C   0  0  0  0  0  0  0  0  0  0  0  0
    5.8762    4.2092    2.8869 N   0  0  0  0  0  0  0  0  0  0  0  0
   -6.9049    2.6680   -1.4493 H   0  0  0  0  0  0  0  0  0  0  0  0
   -8.0733    1.5010   -0.7482 H   0  0  0  0  0  0  0  0  0  0  0  0
   -6.7743    0.8675   -1.8095 H   0  0  0  0  0  0  0  0  0  0  0  0
   -6.7475    1.1572    2.1402 H   0  0  0  0  0  0  0  0  0  0  0  0
   -7.5781    2.5524    1.3494 H   0  0  0  0  0  0  0  0  0  0  0  0
   -5.8142    2.6786    1.8004 H   0  0  0  0  0  0  0  0  0  0  0  0
   -3.7680    2.5150    0.4598 H   0  0  0  0  0  0  0  0  0  0  0  0
   -1.6452    1.2917    0.3198 H   0  0  0  0  0  0  0  0  0  0  0  0
   -3.7492   -2.3216   -0.5017 H   0  0  0  0  0  0  0  0  0  0  0  0
   -5.8756   -1.0835   -0.3564 H   0  0  0  0  0  0  0  0  0  0  0  0
    3.8897   -3.1346   -0.1003 H   0  0  0  0  0  0  0  0  0  0  0  0
    2.6465   -5.2195   -0.6233 H   0  0  0  0  0  0  0  0  0  0  0  0
    0.2101   -5.1031   -0.8016 H   0  0  0  0  0  0  0  0  0  0  0  0
   -2.0048   -3.3178   -0.6244 H   0  0  0  0  0  0  0  0  0  0  0  0
    4.4080   -1.1141   -1.2034 H   0  0  0  0  0  0  0  0  0  0  0  0
    6.1682    0.1266   -2.0247 H   0  0  0  0  0  0  0  0  0  0  0  0
    7.8235    1.9006   -1.8625 H   0  0  0  0  0  0  0  0  0  0  0  0
    7.7391    3.4629   -0.0118 H   0  0  0  0  0  0  0  0  0  0  0  0
    4.2920    1.4736    1.5657 H   0  0  0  0  0  0  0  0  0  0  0  0
  1  2  1  0
  2  3  1  0
  2  4  1  0
  4  5  2  0
  5  6  1  0
  6  7  2  0
  7  8  1  0
  8  9  2  0
  7 10  1  0
 10 11  2  0
 11 12  1  0
 12 13  2  0
 13 14  1  0
 14 15  2  0
 15 16  1  0
 16 17  2  0
 17 18  1  0
 13 19  1  0
 19 20  2  0
 19 21  1  0
 21 22  1  0
 22 23  2  0
 23 24  1  0
 24 25  2  0
 25 26  1  0
 26 27  2  0
 26 28  1  0
 28 29  3  0
  9  4  1  0
 18 10  1  0
 27 22  1  0
 17 12  1  0
  1 30  1  0
  1 31  1  0
  1 32  1  0
  3 33  1  0
  3 34  1  0
  3 35  1  0
  5 36  1  0
  6 37  1  0
  8 38  1  0
  9 39  1  0
 14 40  1  0
 15 41  1  0
 16 42  1  0
 18 43  1  0
 21 44  1  0
 23 45  1  0
 24 46  1  0
 25 47  1  0
 27 48  1  0
M  END
$$$$
[H]c1c([H])c([H])c(C([H])([H])[C@@]([H])(C(=O)N2C([H])([H])C([H])([H])C([H])([H])[C@@]2([H])C(=O)N([H])[C@]([H])(C(=O)N([H])[C@]([H])(C(=O)N([H])[C@]([H])(C(=O)N([H])[C@]([H])(C(=O)N([H])[H])C([H])([H])c2c([H])c([H])c([H])c([H])c2[H])C([H])([H])C([H])([H])C([H])([H])N=C(N([H])[H])N([H])[H])C([H])([H])C([H])([H])C([H])([H])N=C(N([H])[H])N([H])[H])C([H])(C([H])([H])[H])C([H])([H])[H])N([H])[H])c([H])c1[H]
     RDKit          3D

120122  0  0  0  0  0  0  0  0999 V2000
    3.1062   -0.5407   -4.2060 C   0  0  0  0  0  0  0  0  0  0  0  0
    2.3839   -1.3071   -3.0841 C   0  0  0  0  0  0  0  0  0  0  0  0
    2.6168   -2.7759   -3.2267 C   0  0  0  0  0  0  0  0  0  0  0  0
    2.8215   -0.7420   -1.7264 C   0  0  2  0  0  0  0  0  0  0  0  0
    4.2356   -0.8588   -1.5386 N   0  0  0  0  0  0  0  0  0  0  0  0
    5.0392    0.3068   -1.7069 C   0  0  0  0  0  0  0  0  0  0  0  0
    4.4071    1.3793   -2.0233 O   0  0  0  0  0  0  0  0  0  0  0  0
    6.4839    0.4344   -1.5737 C   0  0  2  0  0  0  0  0  0  0  0  0
    7.0474    0.4137   -3.0018 C   0  0  0  0  0  0  0  0  0  0  0  0
    7.3656   -1.0514   -3.2023 C   0  0  0  0  0  0  0  0  0  0  0  0
    7.5382   -1.6475   -1.8237 C   0  0  0  0  0  0  0  0  0  0  0  0
    7.1677   -0.6082   -0.8870 N   0  0  0  0  0  0  0  0  0  0  0  0
    7.4967   -0.6347    0.5049 C   0  0  0  0  0  0  0  0  0  0  0  0
    8.0650   -1.6764    0.9398 O   0  0  0  0  0  0  0  0  0  0  0  0
    7.1989    0.4993    1.4347 C   0  0  1  0  0  0  0  0  0  0  0  0
    7.3102   -0.0663    2.7935 N   0  0  0  0  0  0  0  0  0  0  0  0
    8.2944    1.5451    1.3790 C   0  0  0  0  0  0  0  0  0  0  0  0
    8.0711    2.7024    2.2555 C   0  0  0  0  0  0  0  0  0  0  0  0
    8.5649    2.7075    3.5428 C   0  0  0  0  0  0  0  0  0  0  0  0
    8.3720    3.8309    4.3642 C   0  0  0  0  0  0  0  0  0  0  0  0
    7.6884    4.9294    3.8795 C   0  0  0  0  0  0  0  0  0  0  0  0
    7.1941    4.9337    2.6057 C   0  0  0  0  0  0  0  0  0  0  0  0
    7.3987    3.8002    1.8056 C   0  0  0  0  0  0  0  0  0  0  0  0
    1.9897   -1.5160   -0.7302 C   0  0  0  0  0  0  0  0  0  0  0  0
    2.5310   -2.5386   -0.2862 O   0  0  0  0  0  0  0  0  0  0  0  0
    0.7235   -1.0644   -0.3939 N   0  0  0  0  0  0  0  0  0  0  0  0
   -0.3622   -1.4801    0.3881 C   0  0  1  0  0  0  0  0  0  0  0  0
   -0.2446   -1.5211    1.8842 C   0  0  0  0  0  0  0  0  0  0  0  0
    0.7244   -2.4447    2.5022 C   0  0  0  0  0  0  0  0  0  0  0  0
    0.3561   -3.8830    2.1026 C   0  0  0  0  0  0  0  0  0  0  0  0
   -0.9641   -4.1310    2.5499 N   0  0  0  0  0  0  0  0  0  0  0  0
   -1.8423   -4.9459    2.1375 C   0  0  0  0  0  0  0  0  0  0  0  0
   -1.6262   -5.8403    1.0500 N   0  0  0  0  0  0  0  0  0  0  0  0
   -3.1401   -4.9705    2.7792 N   0  0  0  0  0  0  0  0  0  0  0  0
   -1.6089   -0.6878    0.1316 C   0  0  0  0  0  0  0  0  0  0  0  0
   -1.4205    0.5779    0.0022 O   0  0  0  0  0  0  0  0  0  0  0  0
   -2.8956   -1.1865    0.0313 N   0  0  0  0  0  0  0  0  0  0  0  0
   -4.0051   -0.1864   -0.1941 C   0  0  1  0  0  0  0  0  0  0  0  0
   -4.1620   -0.2287   -1.6915 C   0  0  0  0  0  0  0  0  0  0  0  0
   -5.1506    0.7374   -2.2309 C   0  0  0  0  0  0  0  0  0  0  0  0
   -4.7310    2.1562   -1.8882 C   0  0  0  0  0  0  0  0  0  0  0  0
   -3.4370    2.4779   -2.4449 N   0  0  0  0  0  0  0  0  0  0  0  0
   -2.9075    3.6358   -2.1983 C   0  0  0  0  0  0  0  0  0  0  0  0
   -3.5836    4.6032   -1.3823 N   0  0  0  0  0  0  0  0  0  0  0  0
   -1.6326    3.9189   -2.7496 N   0  0  0  0  0  0  0  0  0  0  0  0
   -5.1660   -0.6642    0.5727 C   0  0  0  0  0  0  0  0  0  0  0  0
   -4.9865   -1.7894    1.1556 O   0  0  0  0  0  0  0  0  0  0  0  0
   -6.4169   -0.0509    0.7420 N   0  0  0  0  0  0  0  0  0  0  0  0
   -7.5686   -0.4407    1.4655 C   0  0  1  0  0  0  0  0  0  0  0  0
   -8.8944   -0.1719    0.8478 C   0  0  0  0  0  0  0  0  0  0  0  0
   -9.1434    1.2648    0.5590 C   0  0  0  0  0  0  0  0  0  0  0  0
   -8.9196    1.7947   -0.6954 C   0  0  0  0  0  0  0  0  0  0  0  0
   -9.1441    3.1331   -0.9798 C   0  0  0  0  0  0  0  0  0  0  0  0
   -9.6108    3.9421    0.0365 C   0  0  0  0  0  0  0  0  0  0  0  0
   -9.8411    3.4380    1.2804 C   0  0  0  0  0  0  0  0  0  0  0  0
   -9.6058    2.0822    1.5610 C   0  0  0  0  0  0  0  0  0  0  0  0
   -7.5591   -1.7288    2.2210 C   0  0  0  0  0  0  0  0  0  0  0  0
   -8.6066   -2.6806    2.0693 N   0  0  0  0  0  0  0  0  0  0  0  0
   -6.6380   -2.0107    3.0019 O   0  0  0  0  0  0  0  0  0  0  0  0
    2.8900   -1.1366   -5.1393 H   0  0  0  0  0  0  0  0  0  0  0  0
    2.8314    0.5078   -4.2777 H   0  0  0  0  0  0  0  0  0  0  0  0
    4.1998   -0.6631   -4.0550 H   0  0  0  0  0  0  0  0  0  0  0  0
    1.3003   -1.1094   -3.2415 H   0  0  0  0  0  0  0  0  0  0  0  0
    2.2500   -3.3891   -2.4113 H   0  0  0  0  0  0  0  0  0  0  0  0
    2.0849   -3.1955   -4.1440 H   0  0  0  0  0  0  0  0  0  0  0  0
    3.7033   -3.0172   -3.4409 H   0  0  0  0  0  0  0  0  0  0  0  0
    2.4588    0.3207   -1.6747 H   0  0  0  0  0  0  0  0  0  0  0  0
    4.6736   -1.7413   -1.2840 H   0  0  0  0  0  0  0  0  0  0  0  0
    6.6930    1.4004   -1.0812 H   0  0  0  0  0  0  0  0  0  0  0  0
    6.2723    0.8012   -3.6966 H   0  0  0  0  0  0  0  0  0  0  0  0
    7.9793    0.9859   -2.9856 H   0  0  0  0  0  0  0  0  0  0  0  0
    8.1746   -1.2609   -3.8972 H   0  0  0  0  0  0  0  0  0  0  0  0
    6.4270   -1.4969   -3.6092 H   0  0  0  0  0  0  0  0  0  0  0  0
    8.5870   -1.9982   -1.7008 H   0  0  0  0  0  0  0  0  0  0  0  0
    6.9023   -2.5356   -1.6507 H   0  0  0  0  0  0  0  0  0  0  0  0
    6.1891    0.8974    1.3342 H   0  0  0  0  0  0  0  0  0  0  0  0
    6.6786   -0.9226    2.8743 H   0  0  0  0  0  0  0  0  0  0  0  0
    8.2865   -0.4862    2.8146 H   0  0  0  0  0  0  0  0  0  0  0  0
    8.4527    1.9280    0.3659 H   0  0  0  0  0  0  0  0  0  0  0  0
    9.2861    1.0803    1.6756 H   0  0  0  0  0  0  0  0  0  0  0  0
    9.1070    1.8916    3.9813 H   0  0  0  0  0  0  0  0  0  0  0  0
    8.7542    3.8723    5.3818 H   0  0  0  0  0  0  0  0  0  0  0  0
    7.5640    5.7796    4.5464 H   0  0  0  0  0  0  0  0  0  0  0  0
    6.6688    5.8016    2.2520 H   0  0  0  0  0  0  0  0  0  0  0  0
    6.9776    3.8719    0.7981 H   0  0  0  0  0  0  0  0  0  0  0  0
    0.5050   -0.0871   -0.8908 H   0  0  0  0  0  0  0  0  0  0  0  0
   -0.5868   -2.5593    0.0502 H   0  0  0  0  0  0  0  0  0  0  0  0
   -0.0072   -0.4706    2.2115 H   0  0  0  0  0  0  0  0  0  0  0  0
   -1.2834   -1.7707    2.2626 H   0  0  0  0  0  0  0  0  0  0  0  0
    0.4924   -2.4104    3.6367 H   0  0  0  0  0  0  0  0  0  0  0  0
    1.7631   -2.2644    2.3426 H   0  0  0  0  0  0  0  0  0  0  0  0
    0.5230   -3.9879    1.0088 H   0  0  0  0  0  0  0  0  0  0  0  0
    1.0805   -4.5439    2.6090 H   0  0  0  0  0  0  0  0  0  0  0  0
   -1.4468   -5.4080    0.1002 H   0  0  0  0  0  0  0  0  0  0  0  0
   -1.6449   -6.8716    1.1506 H   0  0  0  0  0  0  0  0  0  0  0  0
   -3.9207   -5.4634    2.2831 H   0  0  0  0  0  0  0  0  0  0  0  0
   -3.2246   -4.4957    3.7044 H   0  0  0  0  0  0  0  0  0  0  0  0
   -3.2504   -2.1403    0.0761 H   0  0  0  0  0  0  0  0  0  0  0  0
   -3.6366    0.7562    0.1677 H   0  0  0  0  0  0  0  0  0  0  0  0
   -3.1625   -0.1312   -2.1931 H   0  0  0  0  0  0  0  0  0  0  0  0
   -4.5055   -1.2681   -1.9739 H   0  0  0  0  0  0  0  0  0  0  0  0
   -5.1480    0.5973   -3.3504 H   0  0  0  0  0  0  0  0  0  0  0  0
   -6.1525    0.5259   -1.8791 H   0  0  0  0  0  0  0  0  0  0  0  0
   -4.6480    2.2892   -0.7881 H   0  0  0  0  0  0  0  0  0  0  0  0
   -5.4777    2.8877   -2.3104 H   0  0  0  0  0  0  0  0  0  0  0  0
   -3.4205    4.6034   -0.3651 H   0  0  0  0  0  0  0  0  0  0  0  0
   -4.2120    5.2763   -1.8401 H   0  0  0  0  0  0  0  0  0  0  0  0
   -0.8205    4.0427   -2.1198 H   0  0  0  0  0  0  0  0  0  0  0  0
   -1.5228    4.0016   -3.7667 H   0  0  0  0  0  0  0  0  0  0  0  0
   -6.5099    0.9190    0.2608 H   0  0  0  0  0  0  0  0  0  0  0  0
   -7.5638    0.2946    2.4123 H   0  0  0  0  0  0  0  0  0  0  0  0
   -9.6861   -0.5209    1.5537 H   0  0  0  0  0  0  0  0  0  0  0  0
   -8.9982   -0.7268   -0.1200 H   0  0  0  0  0  0  0  0  0  0  0  0
   -8.5650    1.1790   -1.5052 H   0  0  0  0  0  0  0  0  0  0  0  0
   -8.9731    3.5867   -1.9475 H   0  0  0  0  0  0  0  0  0  0  0  0
   -9.7981    5.0080   -0.1917 H   0  0  0  0  0  0  0  0  0  0  0  0
  -10.2129    4.0986    2.0806 H   0  0  0  0  0  0  0  0  0  0  0  0
   -9.7949    1.7374    2.5507 H   0  0  0  0  0  0  0  0  0  0  0  0
   -8.8880   -2.9519    1.1114 H   0  0  0  0  0  0  0  0  0  0  0  0
   -9.0715   -3.0911    2.8836 H   0  0  0  0  0  0  0  0  0  0  0  0
  1  2  1  0
  2  3  1  0
  2  4  1  0
  4  5  1  0
  5  6  1  0
  6  7  2  0
  6  8  1  0
  8  9  1  0
  9 10  1  0
 10 11  1  0
 11 12  1  0
 12 13  1  0
 13 14  2  0
 13 15  1  0
 15 16  1  0
 15 17  1  0
 17 18  1  0
 18 19  2  0
 19 20  1  0
 20 21  2  0
 21 22  1  0
 22 23  2  0
  4 24  1  0
 24 25  2  0
 24 26  1  0
 26 27  1  0
 27 28  1  0
 28 29  1  0
 29 30  1  0
 30 31  1  0
 31 32  2  3
 32 33  1  0
 32 34  1  0
 27 35  1  0
 35 36  2  0
 35 37  1  0
 37 38  1  0
 38 39  1  0
 39 40  1  0
 40 41  1  0
 41 42  1  0
 42 43  2  3
 43 44  1  0
 43 45  1  0
 38 46  1  0
 46 47  2  0
 46 48  1  0
 48 49  1  0
 49 50  1  0
 50 51  1  0
 51 52  2  0
 52 53  1  0
 53 54  2  0
 54 55  1  0
 55 56  2  0
 49 57  1  0
 57 58  1  0
 57 59  2  0
 12  8  1  0
 23 18  1  0
 56 51  1  0
  1 60  1  0
  1 61  1  0
  1 62  1  0
  2 63  1  0
  3 64  1  0
  3 65  1  0
  3 66  1  0
  4 67  1  6
  5 68  1  0
  8 69  1  1
  9 70  1  0
  9 71  1  0
 10 72  1  0
 10 73  1  0
 11 74  1  0
 11 75  1  0
 15 76  1  6
 16 77  1  0
 16 78  1  0
 17 79  1  0
 17 80  1  0
 19 81  1  0
 20 82  1  0
 21 83  1  0
 22 84  1  0
 23 85  1  0
 26 86  1  0
 27 87  1  6
 28 88  1  0
 28 89  1  0
 29 90  1  0
 29 91  1  0
 30 92  1  0
 30 93  1  0
 33 94  1  0
 33 95  1  0
 34 96  1  0
 34 97  1  0
 37 98  1  0
 38 99  1  1
 39100  1  0
 39101  1  0
 40102  1  0
 40103  1  0
 41104  1  0
 41105  1  0
 44106  1  0
 44107  1  0
 45108  1  0
 45109  1  0
 48110  1  0
 49111  1  1
 50112  1  0
 50113  1  0
 52114  1  0
 53115  1  0
 54116  1  0
 55117  1  0
 56118  1  0
 58119  1  0
 58120  1  0
M  END
$$$$
[H]c1c(Cl)c([H])c(C(=O)N([H])[C@]2([H])C([H])([H])C([H])([H])[C@@]([H])(N([H])C(=O)OC(C([H])([H])[H])(C([H])([H])[H])C([H])([H])[H])C([H])([H])C2([H])[H])c([H])c1Cl
     RDKit          3D

 49 50  0  0  0  0  0  0  0  0999 V2000
   -5.7472    0.7178    1.0792 C   0  0  0  0  0  0  0  0  0  0  0  0
   -5.7528    0.4327   -0.4084 C   0  0  0  0  0  0  0  0  0  0  0  0
   -7.1075   -0.1894   -0.7160 C   0  0  0  0  0  0  0  0  0  0  0  0
   -5.6724    1.7263   -1.1321 C   0  0  0  0  0  0  0  0  0  0  0  0
   -4.7084   -0.4618   -0.6683 O   0  0  0  0  0  0  0  0  0  0  0  0
   -3.3825   -0.1761   -0.3977 C   0  0  0  0  0  0  0  0  0  0  0  0
   -3.1622    0.9535    0.1042 O   0  0  0  0  0  0  0  0  0  0  0  0
   -2.3288   -1.1053   -0.6709 N   0  0  0  0  0  0  0  0  0  0  0  0
   -0.9608   -0.7710   -0.3749 C   0  0  1  0  0  0  0  0  0  0  0  0
   -0.3241   -1.7456    0.5795 C   0  0  0  0  0  0  0  0  0  0  0  0
    1.1365   -1.6973    0.6730 C   0  0  0  0  0  0  0  0  0  0  0  0
    1.9110   -1.1207   -0.4352 C   0  0  1  0  0  0  0  0  0  0  0  0
    1.1468   -0.2508   -1.3922 C   0  0  0  0  0  0  0  0  0  0  0  0
   -0.1892   -0.8718   -1.6865 C   0  0  0  0  0  0  0  0  0  0  0  0
    3.0273   -0.3113    0.0593 N   0  0  0  0  0  0  0  0  0  0  0  0
    4.3664   -0.5962   -0.2376 C   0  0  0  0  0  0  0  0  0  0  0  0
    4.6003   -1.6031   -0.9678 O   0  0  0  0  0  0  0  0  0  0  0  0
    5.4739    0.1986    0.2472 C   0  0  0  0  0  0  0  0  0  0  0  0
    6.7779   -0.1297   -0.0789 C   0  0  0  0  0  0  0  0  0  0  0  0
    7.8537    0.6050    0.3655 C   0  0  0  0  0  0  0  0  0  0  0  0
    9.5104    0.1684   -0.0626 Cl  0  0  0  0  0  0  0  0  0  0  0  0
    7.6690    1.7117    1.1638 C   0  0  0  0  0  0  0  0  0  0  0  0
    6.3700    2.0395    1.4891 C   0  0  0  0  0  0  0  0  0  0  0  0
    6.1342    3.4602    2.5138 Cl  0  0  0  0  0  0  0  0  0  0  0  0
    5.2894    1.3013    1.0426 C   0  0  0  0  0  0  0  0  0  0  0  0
   -5.1366   -0.0416    1.6269 H   0  0  0  0  0  0  0  0  0  0  0  0
   -6.7736    0.7233    1.4996 H   0  0  0  0  0  0  0  0  0  0  0  0
   -5.2240    1.6828    1.2311 H   0  0  0  0  0  0  0  0  0  0  0  0
   -7.1266   -1.2659   -0.4535 H   0  0  0  0  0  0  0  0  0  0  0  0
   -7.8469    0.3036   -0.0503 H   0  0  0  0  0  0  0  0  0  0  0  0
   -7.4233    0.0145   -1.7524 H   0  0  0  0  0  0  0  0  0  0  0  0
   -6.7094    2.1711   -1.1393 H   0  0  0  0  0  0  0  0  0  0  0  0
   -5.0565    2.4948   -0.5869 H   0  0  0  0  0  0  0  0  0  0  0  0
   -5.3812    1.6507   -2.1953 H   0  0  0  0  0  0  0  0  0  0  0  0
   -2.6097   -2.0182   -1.0882 H   0  0  0  0  0  0  0  0  0  0  0  0
   -0.8782    0.2309    0.0571 H   0  0  0  0  0  0  0  0  0  0  0  0
   -0.7138   -2.7569    0.2917 H   0  0  0  0  0  0  0  0  0  0  0  0
   -0.8081   -1.5471    1.5823 H   0  0  0  0  0  0  0  0  0  0  0  0
    1.4135   -1.1401    1.6189 H   0  0  0  0  0  0  0  0  0  0  0  0
    1.5150   -2.7436    0.8792 H   0  0  0  0  0  0  0  0  0  0  0  0
    2.3708   -1.9307   -1.0410 H   0  0  0  0  0  0  0  0  0  0  0  0
    0.9506    0.7233   -0.8617 H   0  0  0  0  0  0  0  0  0  0  0  0
    1.7016   -0.0820   -2.3184 H   0  0  0  0  0  0  0  0  0  0  0  0
   -0.0485   -1.9158   -1.9670 H   0  0  0  0  0  0  0  0  0  0  0  0
   -0.7567   -0.2732   -2.4285 H   0  0  0  0  0  0  0  0  0  0  0  0
    2.7883    0.4964    0.6487 H   0  0  0  0  0  0  0  0  0  0  0  0
    6.9858   -0.9851   -0.7006 H   0  0  0  0  0  0  0  0  0  0  0  0
    8.5200    2.2896    1.5130 H   0  0  0  0  0  0  0  0  0  0  0  0
    4.3165    1.6341    1.3481 H   0  0  0  0  0  0  0  0  0  0  0  0
  1  2  1  0
  2  3  1  0
  2  4  1  0
  2  5  1  0
  5  6  1  0
  6  7  2  0
  6  8  1  0
  8  9  1  0
  9 10  1  0
 10 11  1  0
 11 12  1  0
 12 13  1  0
 13 14  1  0
 12 15  1  0
 15 16  1  0
 16 17  2  0
 16 18  1  0
 18 19  2  0
 19 20  1  0
 20 21  1  0
 20 22  2  0
 22 23  1  0
 23 24  1  0
 23 25  2  0
 14  9  1  0
 25 18  1  0
  1 26  1  0
  1 27  1  0
  1 28  1  0
  3 29  1  0
  3 30  1  0
  3 31  1  0
  4 32  1  0
  4 33  1  0
  4 34  1  0
  8 35  1  0
  9 36  1  1
 10 37  1  0
 10 38  1  0
 11 39  1  0
 11 40  1  0
 12 41  1  6
 13 42  1  0
 13 43  1  0
 14 44  1  0
 14 45  1  0
 15 46  1  0
 19 47  1  0
 22 48  1  0
 25 49  1  0
M  END
$$$$
[H]c1c([H])c(S(=O)(=O)N2C([H])([H])[C@@]3([H])[C@]([H])(c4c([H])n([H])c5c([H])c([H])c(C(=O)N([H])[H])c([H])c45)C([H])([H])[C@@]23[H])c([H])c([H])c1OC([H])([H])[H]
     RDKit          3D

 50 54  0  0  0  0  0  0  0  0999 V2000
    7.8139    1.2275    0.2344 C   0  0  0  0  0  0  0  0  0  0  0  0
    7.0139    0.4745    1.1077 O   0  0  0  0  0  0  0  0  0  0  0  0
    5.9032   -0.2548    0.6394 C   0  0  0  0  0  0  0  0  0  0  0  0
    5.5491   -0.2672   -0.6800 C   0  0  0  0  0  0  0  0  0  0  0  0
    4.4532   -0.9910   -1.1196 C   0  0  0  0  0  0  0  0  0  0  0  0
    3.6856   -1.7217   -0.2379 C   0  0  0  0  0  0  0  0  0  0  0  0
    4.0581   -1.6970    1.0884 C   0  0  0  0  0  0  0  0  0  0  0  0
    5.1538   -0.9750    1.5364 C   0  0  0  0  0  0  0  0  0  0  0  0
    2.3169   -2.6349   -0.7377 S   0  0  0  0  0  0  0  0  0  0  0  0
    2.1923   -3.8652    0.1501 O   0  0  0  0  0  0  0  0  0  0  0  0
    2.5788   -3.1652   -2.1309 O   0  0  0  0  0  0  0  0  0  0  0  0
    0.8449   -1.8192   -0.7248 N   0  0  0  0  0  0  0  0  0  0  0  0
    0.8066   -0.6697   -1.6235 C   0  0  0  0  0  0  0  0  0  0  0  0
    0.1392    0.1015   -0.5153 C   0  0  1  0  0  0  0  0  0  0  0  0
   -1.3149   -0.1574   -0.3510 C   0  0  1  0  0  0  0  0  0  0  0  0
   -0.9914   -1.0800    0.8009 C   0  0  0  0  0  0  0  0  0  0  0  0
    0.4677   -1.0554    0.3991 C   0  0  1  0  0  0  0  0  0  0  0  0
   -2.0796    1.0481   -0.0070 C   0  0  0  0  0  0  0  0  0  0  0  0
   -1.6588    2.3378    0.1764 C   0  0  0  0  0  0  0  0  0  0  0  0
   -2.6941    3.1352    0.4827 N   0  0  0  0  0  0  0  0  0  0  0  0
   -3.8094    2.3926    0.5072 C   0  0  0  0  0  0  0  0  0  0  0  0
   -5.1425    2.6755    0.7598 C   0  0  0  0  0  0  0  0  0  0  0  0
   -6.0619    1.6573    0.7024 C   0  0  0  0  0  0  0  0  0  0  0  0
   -5.7510    0.3577    0.4082 C   0  0  0  0  0  0  0  0  0  0  0  0
   -4.4181    0.0701    0.1548 C   0  0  0  0  0  0  0  0  0  0  0  0
   -3.4594    1.0861    0.2058 C   0  0  0  0  0  0  0  0  0  0  0  0
   -6.7416   -0.7076    0.3524 C   0  0  0  0  0  0  0  0  0  0  0  0
   -8.1028   -0.4464    0.6060 N   0  0  0  0  0  0  0  0  0  0  0  0
   -6.4032   -1.8858    0.0764 O   0  0  0  0  0  0  0  0  0  0  0  0
    8.0421    0.6462   -0.6833 H   0  0  0  0  0  0  0  0  0  0  0  0
    7.2659    2.1393   -0.0630 H   0  0  0  0  0  0  0  0  0  0  0  0
    8.7690    1.4741    0.7649 H   0  0  0  0  0  0  0  0  0  0  0  0
    6.1578    0.3144   -1.3900 H   0  0  0  0  0  0  0  0  0  0  0  0
    4.2300   -0.9554   -2.1824 H   0  0  0  0  0  0  0  0  0  0  0  0
    3.5031   -2.2460    1.8354 H   0  0  0  0  0  0  0  0  0  0  0  0
    5.4572   -0.9473    2.5761 H   0  0  0  0  0  0  0  0  0  0  0  0
    1.7713   -0.2586   -1.9181 H   0  0  0  0  0  0  0  0  0  0  0  0
    0.0816   -0.8842   -2.4398 H   0  0  0  0  0  0  0  0  0  0  0  0
    0.5531    1.0650   -0.2500 H   0  0  0  0  0  0  0  0  0  0  0  0
   -1.7132   -0.6971   -1.2459 H   0  0  0  0  0  0  0  0  0  0  0  0
   -1.1593   -0.6672    1.8024 H   0  0  0  0  0  0  0  0  0  0  0  0
   -1.4132   -2.0869    0.6178 H   0  0  0  0  0  0  0  0  0  0  0  0
    1.1859   -0.8606    1.1902 H   0  0  0  0  0  0  0  0  0  0  0  0
   -0.6370    2.6791    0.0892 H   0  0  0  0  0  0  0  0  0  0  0  0
   -2.6602    4.1468    0.6707 H   0  0  0  0  0  0  0  0  0  0  0  0
   -5.3910    3.7018    0.9926 H   0  0  0  0  0  0  0  0  0  0  0  0
   -7.0991    1.8864    0.9006 H   0  0  0  0  0  0  0  0  0  0  0  0
   -4.0900   -0.9186   -0.0827 H   0  0  0  0  0  0  0  0  0  0  0  0
   -8.7587   -0.2964   -0.1753 H   0  0  0  0  0  0  0  0  0  0  0  0
   -8.4439   -0.4052    1.5781 H   0  0  0  0  0  0  0  0  0  0  0  0
  1  2  1  0
  2  3  1  0
  3  4  2  0
  4  5  1  0
  5  6  2  0
  6  7  1  0
  7  8  2  0
  6  9  1  0
  9 10  2  0
  9 11  2  0
  9 12  1  0
 12 13  1  0
 13 14  1  0
 14 15  1  0
 15 16  1  0
 16 17  1  0
 15 18  1  0
 18 19  2  0
 19 20  1  0
 20 21  1  0
 21 22  2  0
 22 23  1  0
 23 24  2  0
 24 25  1  0
 25 26  2  0
 24 27  1  0
 27 28  1  0
 27 29  2  0
  8  3  1  0
 17 12  1  0
 26 18  1  0
 17 14  1  0
 26 21  1  0
  1 30  1  0
  1 31  1  0
  1 32  1  0
  4 33  1  0
  5 34  1  0
  7 35  1  0
  8 36  1  0
 13 37  1  0
 13 38  1  0
 14 39  1  1
 15 40  1  6
 16 41  1  0
 16 42  1  0
 17 43  1  1
 19 44  1  0
 20 45  1  0
 22 46  1  0
 23 47  1  0
 25 48  1  0
 28 49  1  0
 28 50  1  0
M  END
$$$$
[H]c1nc(N([H])[H])c(C(=O)N([H])[H])c(N2C([H])([H])C([H])([H])N(C([H])([H])c3c(-c4sc5c(OC([H])([H])[H])c([H])c(C([H])([H])[H])c([H])c5c4[H])c4c(N([H])[H])nc([H])nn4c3[H])C([H])([H])C2([H])[H])n1
     RDKit          3D

 67 72  0  0  0  0  0  0  0  0999 V2000
   -6.5152    3.1267    2.2655 C   0  0  0  0  0  0  0  0  0  0  0  0
   -5.4837    2.4588    1.5639 O   0  0  0  0  0  0  0  0  0  0  0  0
   -5.7367    1.1895    1.1067 C   0  0  0  0  0  0  0  0  0  0  0  0
   -6.9384    0.5504    1.3017 C   0  0  0  0  0  0  0  0  0  0  0  0
   -7.0699   -0.7198    0.7959 C   0  0  0  0  0  0  0  0  0  0  0  0
   -8.3889   -1.4269    1.0076 C   0  0  0  0  0  0  0  0  0  0  0  0
   -6.0517   -1.3280    0.1259 C   0  0  0  0  0  0  0  0  0  0  0  0
   -4.8120   -0.7039   -0.0907 C   0  0  0  0  0  0  0  0  0  0  0  0
   -3.7423   -1.2198   -0.7401 C   0  0  0  0  0  0  0  0  0  0  0  0
   -2.6227   -0.4563   -0.8512 C   0  0  0  0  0  0  0  0  0  0  0  0
   -3.1077    0.9927   -0.0208 S   0  0  0  0  0  0  0  0  0  0  0  0
   -4.6891    0.5537    0.4129 C   0  0  0  0  0  0  0  0  0  0  0  0
   -1.2727   -0.7516   -1.3722 C   0  0  0  0  0  0  0  0  0  0  0  0
   -0.0846   -0.3914   -0.7155 C   0  0  0  0  0  0  0  0  0  0  0  0
   -0.0398    0.2633    0.5996 C   0  0  0  0  0  0  0  0  0  0  0  0
    1.2350    0.5735    1.1270 N   0  0  0  0  0  0  0  0  0  0  0  0
    2.0125    1.5558    0.4859 C   0  0  0  0  0  0  0  0  0  0  0  0
    3.3802    1.7550    1.0743 C   0  0  0  0  0  0  0  0  0  0  0  0
    4.0639    0.5382    1.4100 N   0  0  0  0  0  0  0  0  0  0  0  0
    3.3104   -0.6779    1.5613 C   0  0  0  0  0  0  0  0  0  0  0  0
    1.8729   -0.3938    1.9320 C   0  0  0  0  0  0  0  0  0  0  0  0
    5.4711    0.5793    1.6357 C   0  0  0  0  0  0  0  0  0  0  0  0
    5.8241    0.7394    2.9711 N   0  0  0  0  0  0  0  0  0  0  0  0
    7.1014    0.8529    3.3078 C   0  0  0  0  0  0  0  0  0  0  0  0
    8.0944    0.8210    2.4109 N   0  0  0  0  0  0  0  0  0  0  0  0
    7.7822    0.6679    1.1307 C   0  0  0  0  0  0  0  0  0  0  0  0
    8.7860    0.6261    0.1302 N   0  0  0  0  0  0  0  0  0  0  0  0
    6.4443    0.5393    0.6961 C   0  0  0  0  0  0  0  0  0  0  0  0
    6.1946    0.3434   -0.7139 C   0  0  0  0  0  0  0  0  0  0  0  0
    4.9397    0.1577   -1.2886 N   0  0  0  0  0  0  0  0  0  0  0  0
    7.1731    0.3282   -1.5373 O   0  0  0  0  0  0  0  0  0  0  0  0
    0.9717   -0.7582   -1.4689 C   0  0  0  0  0  0  0  0  0  0  0  0
    0.4792   -1.3343   -2.5800 N   0  0  0  0  0  0  0  0  0  0  0  0
    1.0934   -1.8408   -3.6433 N   0  0  0  0  0  0  0  0  0  0  0  0
    0.4429   -2.3575   -4.6940 C   0  0  0  0  0  0  0  0  0  0  0  0
   -0.8947   -2.3785   -4.7052 N   0  0  0  0  0  0  0  0  0  0  0  0
   -1.5589   -1.8681   -3.6309 C   0  0  0  0  0  0  0  0  0  0  0  0
   -2.9771   -1.8199   -3.6918 N   0  0  0  0  0  0  0  0  0  0  0  0
   -0.8902   -1.3420   -2.5495 C   0  0  0  0  0  0  0  0  0  0  0  0
   -7.3308    3.3226    1.5340 H   0  0  0  0  0  0  0  0  0  0  0  0
   -6.1185    4.0821    2.6991 H   0  0  0  0  0  0  0  0  0  0  0  0
   -6.9516    2.4930    3.0677 H   0  0  0  0  0  0  0  0  0  0  0  0
   -7.7491    1.0151    1.8266 H   0  0  0  0  0  0  0  0  0  0  0  0
   -8.7360   -1.2664    2.0489 H   0  0  0  0  0  0  0  0  0  0  0  0
   -8.2525   -2.4763    0.7420 H   0  0  0  0  0  0  0  0  0  0  0  0
   -9.1577   -0.9702    0.3438 H   0  0  0  0  0  0  0  0  0  0  0  0
   -6.2483   -2.3350   -0.2391 H   0  0  0  0  0  0  0  0  0  0  0  0
   -3.7187   -2.2688   -1.1410 H   0  0  0  0  0  0  0  0  0  0  0  0
   -0.6365   -0.3358    1.2987 H   0  0  0  0  0  0  0  0  0  0  0  0
   -0.5918    1.2617    0.5417 H   0  0  0  0  0  0  0  0  0  0  0  0
    2.1111    1.5284   -0.5958 H   0  0  0  0  0  0  0  0  0  0  0  0
    1.4781    2.5516    0.6922 H   0  0  0  0  0  0  0  0  0  0  0  0
    4.0005    2.3508    0.3877 H   0  0  0  0  0  0  0  0  0  0  0  0
    3.2947    2.3082    2.0692 H   0  0  0  0  0  0  0  0  0  0  0  0
    3.7171   -1.2587    2.4458 H   0  0  0  0  0  0  0  0  0  0  0  0
    3.3510   -1.3750    0.7186 H   0  0  0  0  0  0  0  0  0  0  0  0
    1.8079   -0.1120    2.9928 H   0  0  0  0  0  0  0  0  0  0  0  0
    1.3328   -1.3741    1.8393 H   0  0  0  0  0  0  0  0  0  0  0  0
    7.3913    0.9793    4.3553 H   0  0  0  0  0  0  0  0  0  0  0  0
    9.2056   -0.2750   -0.1819 H   0  0  0  0  0  0  0  0  0  0  0  0
    9.1468    1.4912   -0.3353 H   0  0  0  0  0  0  0  0  0  0  0  0
    4.4026   -0.7289   -1.3406 H   0  0  0  0  0  0  0  0  0  0  0  0
    4.4616    0.9816   -1.7330 H   0  0  0  0  0  0  0  0  0  0  0  0
    2.0051   -0.6555   -1.2805 H   0  0  0  0  0  0  0  0  0  0  0  0
    0.9801   -2.7689   -5.5558 H   0  0  0  0  0  0  0  0  0  0  0  0
   -3.4489   -0.9310   -3.9026 H   0  0  0  0  0  0  0  0  0  0  0  0
   -3.5427   -2.6781   -3.5246 H   0  0  0  0  0  0  0  0  0  0  0  0
  1  2  1  0
  2  3  1  0
  3  4  2  0
  4  5  1  0
  5  6  1  0
  5  7  2  0
  7  8  1  0
  8  9  1  0
  9 10  2  0
 10 11  1  0
 11 12  1  0
 10 13  1  0
 13 14  1  0
 14 15  1  0
 15 16  1  0
 16 17  1  0
 17 18  1  0
 18 19  1  0
 19 20  1  0
 20 21  1  0
 19 22  1  0
 22 23  2  0
 23 24  1  0
 24 25  2  0
 25 26  1  0
 26 27  1  0
 26 28  2  0
 28 29  1  0
 29 30  1  0
 29 31  2  0
 14 32  2  0
 32 33  1  0
 33 34  1  0
 34 35  2  0
 35 36  1  0
 36 37  2  0
 37 38  1  0
 37 39  1  0
 12  3  1  0
 39 13  2  0
 12  8  2  0
 21 16  1  0
 28 22  1  0
 39 33  1  0
  1 40  1  0
  1 41  1  0
  1 42  1  0
  4 43  1  0
  6 44  1  0
  6 45  1  0
  6 46  1  0
  7 47  1  0
  9 48  1  0
 15 49  1  0
 15 50  1  0
 17 51  1  0
 17 52  1  0
 18 53  1  0
 18 54  1  0
 20 55  1  0
 20 56  1  0
 21 57  1  0
 21 58  1  0
 24 59  1  0
 27 60  1  0
 27 61  1  0
 30 62  1  0
 30 63  1  0
 32 64  1  0
 35 65  1  0
 38 66  1  0
 38 67  1  0
M  END
$$$$
[H]c1c([H])c([H])c(C([H])([H])[C@@]([H])(C(=O)N([H])[C@]([H])(C(=O)N([H])[C@]([H])(C(=O)N([H])[C@]([H])(C(=O)N([H])[H])C([H])([H])c2c([H])c([H])c([H])c([H])c2[H])C([H])([H])c2c([H])c([H])c([H])c([H])c2[H])C([H])([H])C([H])(C([H])([H])[H])C([H])([H])[H])N([H])[H])c([H])c1[H]
     RDKit          3D

 83 85  0  0  0  0  0  0  0  0999 V2000
   -4.8387   -1.7766    0.7559 C   0  0  0  0  0  0  0  0  0  0  0  0
   -3.5605   -1.9493    1.4997 C   0  0  0  0  0  0  0  0  0  0  0  0
   -3.1603   -3.3944    1.4909 C   0  0  0  0  0  0  0  0  0  0  0  0
   -2.5081   -0.9418    1.3821 C   0  0  0  0  0  0  0  0  0  0  0  0
   -1.9332   -0.6142    0.0208 C   0  0  2  0  0  0  0  0  0  0  0  0
   -2.8920   -0.1249   -0.8817 N   0  0  0  0  0  0  0  0  0  0  0  0
   -3.1358    1.2970   -1.0801 C   0  0  0  0  0  0  0  0  0  0  0  0
   -2.4303    2.0734   -0.4004 O   0  0  0  0  0  0  0  0  0  0  0  0
   -4.1442    1.8477   -1.9859 C   0  0  1  0  0  0  0  0  0  0  0  0
   -4.3879    0.9750   -3.1239 N   0  0  0  0  0  0  0  0  0  0  0  0
   -5.4604    1.9426   -1.2202 C   0  0  0  0  0  0  0  0  0  0  0  0
   -5.3701    2.8365   -0.0375 C   0  0  0  0  0  0  0  0  0  0  0  0
   -4.9394    2.3887    1.1977 C   0  0  0  0  0  0  0  0  0  0  0  0
   -4.8699    3.2125    2.3156 C   0  0  0  0  0  0  0  0  0  0  0  0
   -5.2495    4.5232    2.1718 C   0  0  0  0  0  0  0  0  0  0  0  0
   -5.6787    4.9791    0.9622 C   0  0  0  0  0  0  0  0  0  0  0  0
   -5.7532    4.1896   -0.1455 C   0  0  0  0  0  0  0  0  0  0  0  0
   -1.1354   -1.8294   -0.4645 C   0  0  0  0  0  0  0  0  0  0  0  0
   -1.8155   -2.5842   -1.1772 O   0  0  0  0  0  0  0  0  0  0  0  0
    0.1724   -1.9833   -0.0875 N   0  0  0  0  0  0  0  0  0  0  0  0
    1.4854   -2.1385    0.2906 C   0  0  1  0  0  0  0  0  0  0  0  0
    2.4863   -2.4960   -0.7807 C   0  0  0  0  0  0  0  0  0  0  0  0
    2.1759   -3.8057   -1.4299 C   0  0  0  0  0  0  0  0  0  0  0  0
    2.5763   -4.9827   -0.8027 C   0  0  0  0  0  0  0  0  0  0  0  0
    2.3676   -6.2418   -1.3405 C   0  0  0  0  0  0  0  0  0  0  0  0
    1.7348   -6.3158   -2.5523 C   0  0  0  0  0  0  0  0  0  0  0  0
    1.3222   -5.1676   -3.2093 C   0  0  0  0  0  0  0  0  0  0  0  0
    1.5460   -3.9209   -2.6480 C   0  0  0  0  0  0  0  0  0  0  0  0
    2.0470   -0.9709    1.0933 C   0  0  0  0  0  0  0  0  0  0  0  0
    1.3488   -0.6815    2.0774 O   0  0  0  0  0  0  0  0  0  0  0  0
    3.2057   -0.3269    0.7198 N   0  0  0  0  0  0  0  0  0  0  0  0
    3.9860    0.7659    1.2679 C   0  0  1  0  0  0  0  0  0  0  0  0
    5.0315    1.0956    0.2770 C   0  0  0  0  0  0  0  0  0  0  0  0
    5.9946    2.1527    0.4887 C   0  0  0  0  0  0  0  0  0  0  0  0
    7.1276    2.0455    1.2764 C   0  0  0  0  0  0  0  0  0  0  0  0
    8.0887    3.0450    1.3720 C   0  0  0  0  0  0  0  0  0  0  0  0
    7.9140    4.2166    0.6379 C   0  0  0  0  0  0  0  0  0  0  0  0
    6.8268    4.3597   -0.1376 C   0  0  0  0  0  0  0  0  0  0  0  0
    5.8770    3.3652   -0.2256 C   0  0  0  0  0  0  0  0  0  0  0  0
    3.2746    1.8331    1.9364 C   0  0  0  0  0  0  0  0  0  0  0  0
    3.5501    3.2470    1.8821 N   0  0  0  0  0  0  0  0  0  0  0  0
    2.2631    1.6093    2.6935 O   0  0  0  0  0  0  0  0  0  0  0  0
   -5.2954   -0.7960    0.7471 H   0  0  0  0  0  0  0  0  0  0  0  0
   -4.8306   -2.2601   -0.2764 H   0  0  0  0  0  0  0  0  0  0  0  0
   -5.6156   -2.4158    1.2882 H   0  0  0  0  0  0  0  0  0  0  0  0
   -3.9138   -1.7902    2.6076 H   0  0  0  0  0  0  0  0  0  0  0  0
   -2.0712   -3.5915    1.4901 H   0  0  0  0  0  0  0  0  0  0  0  0
   -3.5640   -3.9472    2.3780 H   0  0  0  0  0  0  0  0  0  0  0  0
   -3.5702   -3.8445    0.5588 H   0  0  0  0  0  0  0  0  0  0  0  0
   -1.5997   -1.3384    1.9394 H   0  0  0  0  0  0  0  0  0  0  0  0
   -2.7596    0.0145    1.8923 H   0  0  0  0  0  0  0  0  0  0  0  0
   -1.1703    0.1618    0.2338 H   0  0  0  0  0  0  0  0  0  0  0  0
   -3.4719   -0.7519   -1.4568 H   0  0  0  0  0  0  0  0  0  0  0  0
   -3.8393    2.8167   -2.3474 H   0  0  0  0  0  0  0  0  0  0  0  0
   -3.5499    1.0385   -3.7633 H   0  0  0  0  0  0  0  0  0  0  0  0
   -4.6655    0.0122   -2.9130 H   0  0  0  0  0  0  0  0  0  0  0  0
   -5.7443    0.8990   -0.8740 H   0  0  0  0  0  0  0  0  0  0  0  0
   -6.2535    2.2763   -1.9119 H   0  0  0  0  0  0  0  0  0  0  0  0
   -4.6409    1.3615    1.2876 H   0  0  0  0  0  0  0  0  0  0  0  0
   -4.5111    2.7609    3.2341 H   0  0  0  0  0  0  0  0  0  0  0  0
   -5.1911    5.1723    3.0478 H   0  0  0  0  0  0  0  0  0  0  0  0
   -5.9940    6.0311    0.8761 H   0  0  0  0  0  0  0  0  0  0  0  0
   -6.1003    4.5152   -1.1170 H   0  0  0  0  0  0  0  0  0  0  0  0
    0.1677   -3.2740   -0.5536 H   0  0  0  0  0  0  0  0  0  0  0  0
    1.6127   -3.0236    1.0608 H   0  0  0  0  0  0  0  0  0  0  0  0
    2.4875   -1.7328   -1.5552 H   0  0  0  0  0  0  0  0  0  0  0  0
    3.4661   -2.6536   -0.2441 H   0  0  0  0  0  0  0  0  0  0  0  0
    3.0731   -4.8904    0.1483 H   0  0  0  0  0  0  0  0  0  0  0  0
    2.6925   -7.1588   -0.8532 H   0  0  0  0  0  0  0  0  0  0  0  0
    1.5531   -7.2756   -3.0001 H   0  0  0  0  0  0  0  0  0  0  0  0
    0.8002   -5.2964   -4.1757 H   0  0  0  0  0  0  0  0  0  0  0  0
    1.2003   -3.0621   -3.2026 H   0  0  0  0  0  0  0  0  0  0  0  0
    3.6338   -0.7529   -0.1996 H   0  0  0  0  0  0  0  0  0  0  0  0
    4.5295    0.2525    2.1786 H   0  0  0  0  0  0  0  0  0  0  0  0
    5.6021    0.1272   -0.0206 H   0  0  0  0  0  0  0  0  0  0  0  0
    4.5131    1.2983   -0.7380 H   0  0  0  0  0  0  0  0  0  0  0  0
    7.2742    1.1182    1.8556 H   0  0  0  0  0  0  0  0  0  0  0  0
    8.9821    2.9814    1.9698 H   0  0  0  0  0  0  0  0  0  0  0  0
    8.6627    5.0110    0.7058 H   0  0  0  0  0  0  0  0  0  0  0  0
    6.6958    5.2555   -0.7142 H   0  0  0  0  0  0  0  0  0  0  0  0
    4.9964    3.4593   -0.8435 H   0  0  0  0  0  0  0  0  0  0  0  0
    4.4162    3.6715    2.3084 H   0  0  0  0  0  0  0  0  0  0  0  0
    2.8539    3.8664    1.4129 H   0  0  0  0  0  0  0  0  0  0  0  0
  1  2  1  0
  2  3  1  0
  2  4  1  0
  4  5  1  0
  5  6  1  0
  6  7  1  0
  7  8  2  0
  7  9  1  0
  9 10  1  0
  9 11  1  0
 11 12  1  0
 12 13  2  0
 13 14  1  0
 14 15  2  0
 15 16  1  0
 16 17  2  0
  5 18  1  0
 18 19  2  0
 18 20  1  0
 20 21  1  0
 21 22  1  0
 22 23  1  0
 23 24  2  0
 24 25  1  0
 25 26  2  0
 26 27  1  0
 27 28  2  0
 21 29  1  0
 29 30  2  0
 29 31  1  0
 31 32  1  0
 32 33  1  0
 33 34  1  0
 34 35  2  0
 35 36  1  0
 36 37  2  0
 37 38  1  0
 38 39  2  0
 32 40  1  0
 40 41  1  0
 40 42  2  0
 17 12  1  0
 28 23  1  0
 39 34  1  0
  1 43  1  0
  1 44  1  0
  1 45  1  0
  2 46  1  0
  3 47  1  0
  3 48  1  0
  3 49  1  0
  4 50  1  0
  4 51  1  0
  5 52  1  1
  6 53  1  0
  9 54  1  6
 10 55  1  0
 10 56  1  0
 11 57  1  0
 11 58  1  0
 13 59  1  0
 14 60  1  0
 15 61  1  0
 16 62  1  0
 17 63  1  0
 20 64  1  0
 21 65  1  1
 22 66  1  0
 22 67  1  0
 24 68  1  0
 25 69  1  0
 26 70  1  0
 27 71  1  0
 28 72  1  0
 31 73  1  0
 32 74  1  1
 33 75  1  0
 33 76  1  0
 35 77  1  0
 36 78  1  0
 37 79  1  0
 38 80  1  0
 39 81  1  0
 41 82  1  0
 41 83  1  0
M  END
$$$$
[H]c1c([H])c([C@@]2([H])C([H])([H])N(c3c(Cl)c([H])c([H])c4c3sc(=O)n4[H])C([H])([H])[C@]2([H])C(=O)N2C([H])([H])C([H])([H])N(C([H])([H])[H])C([H])([H])C2([H])[H])c([H])c(Cl)c1Cl
     RDKit          3D

 56 60  0  0  0  0  0  0  0  0999 V2000
    5.4814   -1.7213   -1.8395 C   0  0  0  0  0  0  0  0  0  0  0  0
    4.3058   -0.9842   -1.3668 N   0  0  0  0  0  0  0  0  0  0  0  0
    4.5701   -0.6272    0.0097 C   0  0  0  0  0  0  0  0  0  0  0  0
    3.4709   -1.0976    0.9358 C   0  0  0  0  0  0  0  0  0  0  0  0
    2.2127   -0.6942    0.3087 N   0  0  0  0  0  0  0  0  0  0  0  0
    1.8955   -1.3006   -0.9541 C   0  0  0  0  0  0  0  0  0  0  0  0
    3.1854   -1.8707   -1.5085 C   0  0  0  0  0  0  0  0  0  0  0  0
    1.3582    0.2456    0.9039 C   0  0  0  0  0  0  0  0  0  0  0  0
    1.6990    0.7633    2.0162 O   0  0  0  0  0  0  0  0  0  0  0  0
    0.0884    0.6353    0.2680 C   0  0  1  0  0  0  0  0  0  0  0  0
   -0.8494   -0.5665    0.2304 C   0  0  0  0  0  0  0  0  0  0  0  0
   -2.1871   -0.0186    0.3408 N   0  0  0  0  0  0  0  0  0  0  0  0
   -2.0971    1.3473    0.7469 C   0  0  0  0  0  0  0  0  0  0  0  0
   -0.6605    1.6086    1.1063 C   0  0  2  0  0  0  0  0  0  0  0  0
   -0.2696    3.0104    0.8823 C   0  0  0  0  0  0  0  0  0  0  0  0
    0.1661    3.7757    1.9383 C   0  0  0  0  0  0  0  0  0  0  0  0
    0.5523    5.1019    1.7960 C   0  0  0  0  0  0  0  0  0  0  0  0
    0.5044    5.6928    0.5587 C   0  0  0  0  0  0  0  0  0  0  0  0
    0.9950    7.3847    0.3660 Cl  0  0  0  0  0  0  0  0  0  0  0  0
    0.0712    4.9454   -0.5125 C   0  0  0  0  0  0  0  0  0  0  0  0
    0.0262    5.7404   -2.0806 Cl  0  0  0  0  0  0  0  0  0  0  0  0
   -0.3154    3.6110   -0.3600 C   0  0  0  0  0  0  0  0  0  0  0  0
   -3.4144   -0.7121    0.1233 C   0  0  0  0  0  0  0  0  0  0  0  0
   -4.6380   -0.1326    0.1419 C   0  0  0  0  0  0  0  0  0  0  0  0
   -4.8590    1.5677    0.3401 Cl  0  0  0  0  0  0  0  0  0  0  0  0
   -5.7310   -0.9764   -0.0394 C   0  0  0  0  0  0  0  0  0  0  0  0
   -5.6391   -2.3164   -0.2299 C   0  0  0  0  0  0  0  0  0  0  0  0
   -4.3693   -2.9314   -0.2524 C   0  0  0  0  0  0  0  0  0  0  0  0
   -4.1383   -4.2168   -0.4245 N   0  0  0  0  0  0  0  0  0  0  0  0
   -2.8768   -4.6433   -0.4165 C   0  0  0  0  0  0  0  0  0  0  0  0
   -2.4591   -5.8498   -0.5675 O   0  0  0  0  0  0  0  0  0  0  0  0
   -1.9928   -3.2110   -0.1613 S   0  0  0  0  0  0  0  0  0  0  0  0
   -3.2968   -2.1014   -0.0742 C   0  0  0  0  0  0  0  0  0  0  0  0
    5.4799   -1.7879   -2.9609 H   0  0  0  0  0  0  0  0  0  0  0  0
    6.4203   -1.2943   -1.4315 H   0  0  0  0  0  0  0  0  0  0  0  0
    5.4248   -2.7643   -1.4769 H   0  0  0  0  0  0  0  0  0  0  0  0
    4.5656    0.4850    0.0582 H   0  0  0  0  0  0  0  0  0  0  0  0
    5.5566   -0.9494    0.3503 H   0  0  0  0  0  0  0  0  0  0  0  0
    3.5552   -0.6502    1.9272 H   0  0  0  0  0  0  0  0  0  0  0  0
    3.4826   -2.2071    0.9175 H   0  0  0  0  0  0  0  0  0  0  0  0
    1.2518   -2.2027   -0.7466 H   0  0  0  0  0  0  0  0  0  0  0  0
    1.3893   -0.6418   -1.6626 H   0  0  0  0  0  0  0  0  0  0  0  0
    3.0076   -2.0090   -2.6015 H   0  0  0  0  0  0  0  0  0  0  0  0
    3.4385   -2.8595   -1.1025 H   0  0  0  0  0  0  0  0  0  0  0  0
    0.2426    1.0033   -0.7897 H   0  0  0  0  0  0  0  0  0  0  0  0
   -0.5800   -1.2954    0.9803 H   0  0  0  0  0  0  0  0  0  0  0  0
   -0.7941   -0.9981   -0.8086 H   0  0  0  0  0  0  0  0  0  0  0  0
   -2.7485    1.5763    1.6337 H   0  0  0  0  0  0  0  0  0  0  0  0
   -2.3350    2.0204   -0.1040 H   0  0  0  0  0  0  0  0  0  0  0  0
   -0.4549    1.3577    2.1777 H   0  0  0  0  0  0  0  0  0  0  0  0
    0.2304    3.3753    2.9469 H   0  0  0  0  0  0  0  0  0  0  0  0
    0.8911    5.6777    2.6548 H   0  0  0  0  0  0  0  0  0  0  0  0
   -0.6495    3.0577   -1.2298 H   0  0  0  0  0  0  0  0  0  0  0  0
   -6.7004   -0.4997   -0.0216 H   0  0  0  0  0  0  0  0  0  0  0  0
   -6.5574   -2.8795   -0.3606 H   0  0  0  0  0  0  0  0  0  0  0  0
   -4.9051   -4.9723   -0.5756 H   0  0  0  0  0  0  0  0  0  0  0  0
  1  2  1  0
  2  3  1  0
  3  4  1  0
  4  5  1  0
  5  6  1  0
  6  7  1  0
  5  8  1  0
  8  9  2  0
  8 10  1  0
 10 11  1  0
 11 12  1  0
 12 13  1  0
 13 14  1  0
 14 15  1  0
 15 16  2  0
 16 17  1  0
 17 18  2  0
 18 19  1  0
 18 20  1  0
 20 21  1  0
 20 22  2  0
 12 23  1  0
 23 24  2  0
 24 25  1  0
 24 26  1  0
 26 27  2  0
 27 28  1  0
 28 29  1  0
 29 30  1  0
 30 31  2  0
 30 32  1  0
 32 33  1  0
  7  2  1  0
 14 10  1  0
 22 15  1  0
 33 23  1  0
 33 28  2  0
  1 34  1  0
  1 35  1  0
  1 36  1  0
  3 37  1  0
  3 38  1  0
  4 39  1  0
  4 40  1  0
  6 41  1  0
  6 42  1  0
  7 43  1  0
  7 44  1  0
 10 45  1  6
 11 46  1  0
 11 47  1  0
 13 48  1  0
 13 49  1  0
 14 50  1  1
 16 51  1  0
 17 52  1  0
 22 53  1  0
 26 54  1  0
 27 55  1  0
 29 56  1  0
M  END
$$$$
[H]c1c([H])c(C(=O)N2C([H])([H])C([H])([H])C([H])(N3C([H])([H])C([H])([H])N(S(=O)(=O)c4c([H])c([H])c(C([H])([H])[H])c([H])c4[H])C([H])([H])C3([H])[H])C([H])([H])C2([H])[H])c([H])c([H])c1F
     RDKit          3D

 59 62  0  0  0  0  0  0  0  0999 V2000
   -8.8373    0.0688    1.5083 C   0  0  0  0  0  0  0  0  0  0  0  0
   -7.5410    0.0703    0.7736 C   0  0  0  0  0  0  0  0  0  0  0  0
   -6.9613    1.2569    0.3726 C   0  0  0  0  0  0  0  0  0  0  0  0
   -5.7445    1.2592   -0.3182 C   0  0  0  0  0  0  0  0  0  0  0  0
   -5.0912    0.0854   -0.6178 C   0  0  0  0  0  0  0  0  0  0  0  0
   -5.6620   -1.1030   -0.2216 C   0  0  0  0  0  0  0  0  0  0  0  0
   -6.8707   -1.0931    0.4638 C   0  0  0  0  0  0  0  0  0  0  0  0
   -3.5909    0.0414   -1.4697 S   0  0  0  0  0  0  0  0  0  0  0  0
   -3.5772    1.1834   -2.4634 O   0  0  0  0  0  0  0  0  0  0  0  0
   -3.5449   -1.2192   -2.3254 O   0  0  0  0  0  0  0  0  0  0  0  0
   -2.2095    0.1139   -0.5404 N   0  0  0  0  0  0  0  0  0  0  0  0
   -1.9541   -0.9051    0.4024 C   0  0  0  0  0  0  0  0  0  0  0  0
   -0.4747   -1.3005    0.2519 C   0  0  0  0  0  0  0  0  0  0  0  0
    0.3574   -0.1136    0.1322 N   0  0  0  0  0  0  0  0  0  0  0  0
   -0.3254    1.0789    0.5124 C   0  0  0  0  0  0  0  0  0  0  0  0
   -1.5483    1.3468   -0.3651 C   0  0  0  0  0  0  0  0  0  0  0  0
    1.0019   -0.1109   -1.1292 C   0  0  0  0  0  0  0  0  0  0  0  0
    1.9360   -1.3039   -1.2483 C   0  0  0  0  0  0  0  0  0  0  0  0
    3.1682   -0.9970   -0.4005 C   0  0  0  0  0  0  0  0  0  0  0  0
    3.8824    0.1054   -0.9730 N   0  0  0  0  0  0  0  0  0  0  0  0
    3.1100    0.7844   -2.0736 C   0  0  0  0  0  0  0  0  0  0  0  0
    1.7731    1.1559   -1.4417 C   0  0  0  0  0  0  0  0  0  0  0  0
    5.1280    0.6112   -0.6459 C   0  0  0  0  0  0  0  0  0  0  0  0
    5.5093    1.6153   -1.3840 O   0  0  0  0  0  0  0  0  0  0  0  0
    6.0554    0.2115    0.3628 C   0  0  0  0  0  0  0  0  0  0  0  0
    5.8257   -0.7487    1.3144 C   0  0  0  0  0  0  0  0  0  0  0  0
    6.7684   -1.1376    2.2816 C   0  0  0  0  0  0  0  0  0  0  0  0
    7.9865   -0.5115    2.2623 C   0  0  0  0  0  0  0  0  0  0  0  0
    8.9083   -0.8794    3.1931 F   0  0  0  0  0  0  0  0  0  0  0  0
    8.2733    0.4598    1.3317 C   0  0  0  0  0  0  0  0  0  0  0  0
    7.3372    0.8124    0.4084 C   0  0  0  0  0  0  0  0  0  0  0  0
   -8.6229   -0.1118    2.5742 H   0  0  0  0  0  0  0  0  0  0  0  0
   -9.3901    1.0188    1.3617 H   0  0  0  0  0  0  0  0  0  0  0  0
   -9.4602   -0.7438    1.0813 H   0  0  0  0  0  0  0  0  0  0  0  0
   -7.4459    2.1973    0.5910 H   0  0  0  0  0  0  0  0  0  0  0  0
   -5.2692    2.1783   -0.6434 H   0  0  0  0  0  0  0  0  0  0  0  0
   -5.1438   -2.0447   -0.4590 H   0  0  0  0  0  0  0  0  0  0  0  0
   -7.3201   -2.0381    0.7760 H   0  0  0  0  0  0  0  0  0  0  0  0
   -2.5671   -1.7919    0.1545 H   0  0  0  0  0  0  0  0  0  0  0  0
   -2.0715   -0.6189    1.4658 H   0  0  0  0  0  0  0  0  0  0  0  0
   -0.1464   -1.8987    1.1225 H   0  0  0  0  0  0  0  0  0  0  0  0
   -0.4741   -1.9151   -0.6878 H   0  0  0  0  0  0  0  0  0  0  0  0
    0.3550    1.9186    0.5613 H   0  0  0  0  0  0  0  0  0  0  0  0
   -0.7232    0.9075    1.5456 H   0  0  0  0  0  0  0  0  0  0  0  0
   -2.1264    2.1340    0.1545 H   0  0  0  0  0  0  0  0  0  0  0  0
   -1.2568    1.7642   -1.3530 H   0  0  0  0  0  0  0  0  0  0  0  0
    0.1864   -0.1860   -1.9090 H   0  0  0  0  0  0  0  0  0  0  0  0
    2.2067   -1.5256   -2.2990 H   0  0  0  0  0  0  0  0  0  0  0  0
    1.5037   -2.2192   -0.7782 H   0  0  0  0  0  0  0  0  0  0  0  0
    2.7642   -0.7510    0.5978 H   0  0  0  0  0  0  0  0  0  0  0  0
    3.7580   -1.9474   -0.4327 H   0  0  0  0  0  0  0  0  0  0  0  0
    3.0399    0.1705   -2.9549 H   0  0  0  0  0  0  0  0  0  0  0  0
    3.6310    1.7355   -2.2761 H   0  0  0  0  0  0  0  0  0  0  0  0
    1.9958    1.7791   -0.5703 H   0  0  0  0  0  0  0  0  0  0  0  0
    1.2321    1.7688   -2.1842 H   0  0  0  0  0  0  0  0  0  0  0  0
    4.8996   -1.2592    1.3949 H   0  0  0  0  0  0  0  0  0  0  0  0
    6.5392   -1.9013    3.0110 H   0  0  0  0  0  0  0  0  0  0  0  0
    9.2573    0.9611    1.3219 H   0  0  0  0  0  0  0  0  0  0  0  0
    7.5608    1.5814   -0.3313 H   0  0  0  0  0  0  0  0  0  0  0  0
  1  2  1  0
  2  3  2  0
  3  4  1  0
  4  5  2  0
  5  6  1  0
  6  7  2  0
  5  8  1  0
  8  9  2  0
  8 10  2  0
  8 11  1  0
 11 12  1  0
 12 13  1  0
 13 14  1  0
 14 15  1  0
 15 16  1  0
 14 17  1  0
 17 18  1  0
 18 19  1  0
 19 20  1  0
 20 21  1  0
 21 22  1  0
 20 23  1  0
 23 24  2  0
 23 25  1  0
 25 26  2  0
 26 27  1  0
 27 28  2  0
 28 29  1  0
 28 30  1  0
 30 31  2  0
  7  2  1  0
 16 11  1  0
 22 17  1  0
 31 25  1  0
  1 32  1  0
  1 33  1  0
  1 34  1  0
  3 35  1  0
  4 36  1  0
  6 37  1  0
  7 38  1  0
 12 39  1  0
 12 40  1  0
 13 41  1  0
 13 42  1  0
 15 43  1  0
 15 44  1  0
 16 45  1  0
 16 46  1  0
 17 47  1  0
 18 48  1  0
 18 49  1  0
 19 50  1  0
 19 51  1  0
 21 52  1  0
 21 53  1  0
 22 54  1  0
 22 55  1  0
 26 56  1  0
 27 57  1  0
 30 58  1  0
 31 59  1  0
M  END
$$$$
[H]c1c([H])c([C@]2([H])C([H])([H])N(S(=O)(=O)c3c([H])c([H])c(OC([H])([H])[H])c([H])c3[H])[C@]([H])(C(=O)N([H])c3c([H])c([H])c(C(F)(F)F)c([H])c3[H])C2([H])[H])c([H])c([H])c1F
     RDKit          3D

 58 61  0  0  0  0  0  0  0  0999 V2000
   -7.1098   -3.4059    0.6238 C   0  0  0  0  0  0  0  0  0  0  0  0
   -5.7347   -3.6161    0.7699 O   0  0  0  0  0  0  0  0  0  0  0  0
   -4.7195   -2.8430    0.2254 C   0  0  0  0  0  0  0  0  0  0  0  0
   -3.4049   -3.2434    0.4709 C   0  0  0  0  0  0  0  0  0  0  0  0
   -2.3755   -2.5348   -0.0378 C   0  0  0  0  0  0  0  0  0  0  0  0
   -2.5274   -1.3846   -0.8293 C   0  0  0  0  0  0  0  0  0  0  0  0
   -3.8320   -1.0170   -1.0477 C   0  0  0  0  0  0  0  0  0  0  0  0
   -4.9077   -1.7223   -0.5380 C   0  0  0  0  0  0  0  0  0  0  0  0
   -1.1151   -0.6421   -1.5206 S   0  0  0  0  0  0  0  0  0  0  0  0
   -0.1156   -1.7490   -1.8242 O   0  0  0  0  0  0  0  0  0  0  0  0
   -1.5922   -0.1665   -2.9257 O   0  0  0  0  0  0  0  0  0  0  0  0
   -0.4912    0.6281   -0.6821 N   0  0  0  0  0  0  0  0  0  0  0  0
   -1.1730    1.8359   -0.4719 C   0  0  0  0  0  0  0  0  0  0  0  0
   -0.1300    2.9226   -0.8127 C   0  0  2  0  0  0  0  0  0  0  0  0
    1.0839    2.2455   -0.1715 C   0  0  0  0  0  0  0  0  0  0  0  0
    0.9005    0.8839   -0.7879 C   0  0  1  0  0  0  0  0  0  0  0  0
    1.7153   -0.1851   -0.1564 C   0  0  0  0  0  0  0  0  0  0  0  0
    1.1111   -0.9925    0.5691 O   0  0  0  0  0  0  0  0  0  0  0  0
    3.1281   -0.3051   -0.3674 N   0  0  0  0  0  0  0  0  0  0  0  0
    3.8709   -1.3561    0.2109 C   0  0  0  0  0  0  0  0  0  0  0  0
    4.9253   -1.9001   -0.5316 C   0  0  0  0  0  0  0  0  0  0  0  0
    5.6731   -2.9547   -0.0095 C   0  0  0  0  0  0  0  0  0  0  0  0
    5.4016   -3.4743    1.2211 C   0  0  0  0  0  0  0  0  0  0  0  0
    4.3588   -2.9302    1.9506 C   0  0  0  0  0  0  0  0  0  0  0  0
    3.5943   -1.8657    1.4393 C   0  0  0  0  0  0  0  0  0  0  0  0
    6.1965   -4.6224    1.7449 C   0  0  0  0  0  0  0  0  0  0  0  0
    5.9411   -5.7105    0.9195 F   0  0  0  0  0  0  0  0  0  0  0  0
    7.5230   -4.3339    1.6738 F   0  0  0  0  0  0  0  0  0  0  0  0
    5.7671   -4.9262    3.0395 F   0  0  0  0  0  0  0  0  0  0  0  0
   -0.3998    4.2565   -0.4399 C   0  0  0  0  0  0  0  0  0  0  0  0
   -1.2930    5.0305   -1.1909 C   0  0  0  0  0  0  0  0  0  0  0  0
   -1.5480    6.3602   -0.8789 C   0  0  0  0  0  0  0  0  0  0  0  0
   -0.9291    6.9703    0.1887 C   0  0  0  0  0  0  0  0  0  0  0  0
   -1.1722    8.2900    0.4998 F   0  0  0  0  0  0  0  0  0  0  0  0
   -0.0480    6.2220    0.9368 C   0  0  0  0  0  0  0  0  0  0  0  0
    0.1968    4.9004    0.6146 C   0  0  0  0  0  0  0  0  0  0  0  0
   -7.4868   -4.2865    0.0193 H   0  0  0  0  0  0  0  0  0  0  0  0
   -7.5891   -3.4961    1.6281 H   0  0  0  0  0  0  0  0  0  0  0  0
   -7.3996   -2.4598    0.1779 H   0  0  0  0  0  0  0  0  0  0  0  0
   -3.2441   -4.1454    1.0804 H   0  0  0  0  0  0  0  0  0  0  0  0
   -1.3483   -2.8573    0.1706 H   0  0  0  0  0  0  0  0  0  0  0  0
   -4.0075   -0.1282   -1.6484 H   0  0  0  0  0  0  0  0  0  0  0  0
   -5.9072   -1.3873   -0.7339 H   0  0  0  0  0  0  0  0  0  0  0  0
   -1.5626    1.9495    0.5490 H   0  0  0  0  0  0  0  0  0  0  0  0
   -1.9952    2.0373   -1.2177 H   0  0  0  0  0  0  0  0  0  0  0  0
    0.0501    2.8595   -1.9302 H   0  0  0  0  0  0  0  0  0  0  0  0
    0.9707    2.1669    0.9195 H   0  0  0  0  0  0  0  0  0  0  0  0
    2.0337    2.7420   -0.4656 H   0  0  0  0  0  0  0  0  0  0  0  0
    1.2082    1.0125   -1.8683 H   0  0  0  0  0  0  0  0  0  0  0  0
    3.6297    0.3843   -0.9432 H   0  0  0  0  0  0  0  0  0  0  0  0
    5.1956   -1.5501   -1.5102 H   0  0  0  0  0  0  0  0  0  0  0  0
    6.4733   -3.3602   -0.6094 H   0  0  0  0  0  0  0  0  0  0  0  0
    4.1293   -3.3139    2.9158 H   0  0  0  0  0  0  0  0  0  0  0  0
    2.8054   -1.4990    2.1113 H   0  0  0  0  0  0  0  0  0  0  0  0
   -1.8096    4.6260   -2.0419 H   0  0  0  0  0  0  0  0  0  0  0  0
   -2.2322    6.9580   -1.4576 H   0  0  0  0  0  0  0  0  0  0  0  0
    0.4221    6.7354    1.7636 H   0  0  0  0  0  0  0  0  0  0  0  0
    0.8957    4.3480    1.2163 H   0  0  0  0  0  0  0  0  0  0  0  0
  1  2  1  0
  2  3  1  0
  3  4  2  0
  4  5  1  0
  5  6  2  0
  6  7  1  0
  7  8  2  0
  6  9  1  0
  9 10  2  0
  9 11  2  0
  9 12  1  0
 12 13  1  0
 13 14  1  0
 14 15  1  0
 15 16  1  0
 16 17  1  0
 17 18  2  0
 17 19  1  0
 19 20  1  0
 20 21  2  0
 21 22  1  0
 22 23  2  0
 23 24  1  0
 24 25  2  0
 23 26  1  0
 26 27  1  0
 26 28  1  0
 26 29  1  0
 14 30  1  0
 30 31  2  0
 31 32  1  0
 32 33  2  0
 33 34  1  0
 33 35  1  0
 35 36  2  0
  8  3  1  0
 16 12  1  0
 25 20  1  0
 36 30  1  0
  1 37  1  0
  1 38  1  0
  1 39  1  0
  4 40  1  0
  5 41  1  0
  7 42  1  0
  8 43  1  0
 13 44  1  0
 13 45  1  0
 14 46  1  6
 15 47  1  0
 15 48  1  0
 16 49  1  6
 19 50  1  0
 21 51  1  0
 22 52  1  0
 24 53  1  0
 25 54  1  0
 31 55  1  0
 32 56  1  0
 35 57  1  0
 36 58  1  0
M  END
$$$$
[H]c1c([H])c(N([H])C(=O)N2C([H])([H])[C@@]3([H])C([H])([H])N(S(=O)(=O)c4c([H])c([H])c(OC([H])([H])[H])c([H])c4[H])C([H])([H])[C@@]23[H])c([H])c([H])c1C#N
     RDKit          3D

 49 52  0  0  0  0  0  0  0  0999 V2000
    8.3958   -1.4676   -0.1112 C   0  0  0  0  0  0  0  0  0  0  0  0
    7.9313   -0.2637    0.4705 O   0  0  0  0  0  0  0  0  0  0  0  0
    6.5426   -0.1189    0.5919 C   0  0  0  0  0  0  0  0  0  0  0  0
    5.6556   -1.0839    0.1744 C   0  0  0  0  0  0  0  0  0  0  0  0
    4.2973   -0.8951    0.3153 C   0  0  0  0  0  0  0  0  0  0  0  0
    3.7624    0.2473    0.8709 C   0  0  0  0  0  0  0  0  0  0  0  0
    4.6602    1.2080    1.2860 C   0  0  0  0  0  0  0  0  0  0  0  0
    6.0206    1.0325    1.1512 C   0  0  0  0  0  0  0  0  0  0  0  0
    2.0450    0.4725    1.0427 S   0  0  0  0  0  0  0  0  0  0  0  0
    1.4463   -0.9119    1.2524 O   0  0  0  0  0  0  0  0  0  0  0  0
    1.7711    1.2200    2.3344 O   0  0  0  0  0  0  0  0  0  0  0  0
    1.3326    1.2615   -0.2905 N   0  0  0  0  0  0  0  0  0  0  0  0
    1.5194    0.4643   -1.4752 C   0  0  0  0  0  0  0  0  0  0  0  0
    0.3533   -0.4423   -1.5418 C   0  0  1  0  0  0  0  0  0  0  0  0
   -0.6461    0.0339   -0.5673 C   0  0  1  0  0  0  0  0  0  0  0  0
   -0.1105    1.3844   -0.1528 C   0  0  0  0  0  0  0  0  0  0  0  0
   -1.6656    0.0038   -1.5640 N   0  0  0  0  0  0  0  0  0  0  0  0
   -0.6510   -0.0136   -2.5883 C   0  0  0  0  0  0  0  0  0  0  0  0
   -3.1011   -0.0073   -1.6394 C   0  0  0  0  0  0  0  0  0  0  0  0
   -3.6280   -0.0369   -2.7538 O   0  0  0  0  0  0  0  0  0  0  0  0
   -3.8602    0.0156   -0.4543 N   0  0  0  0  0  0  0  0  0  0  0  0
   -5.2552    0.0136   -0.2965 C   0  0  0  0  0  0  0  0  0  0  0  0
   -5.7671   -0.1547    0.9721 C   0  0  0  0  0  0  0  0  0  0  0  0
   -7.1161   -0.1562    1.1903 C   0  0  0  0  0  0  0  0  0  0  0  0
   -8.0355    0.0059    0.1855 C   0  0  0  0  0  0  0  0  0  0  0  0
   -7.5329    0.1743   -1.0812 C   0  0  0  0  0  0  0  0  0  0  0  0
   -6.1728    0.1764   -1.3044 C   0  0  0  0  0  0  0  0  0  0  0  0
   -9.4304   -0.0018    0.4533 C   0  0  0  0  0  0  0  0  0  0  0  0
  -10.5608   -0.0129    0.6696 N   0  0  0  0  0  0  0  0  0  0  0  0
    7.9409   -2.3337    0.4289 H   0  0  0  0  0  0  0  0  0  0  0  0
    8.0373   -1.5382   -1.1751 H   0  0  0  0  0  0  0  0  0  0  0  0
    9.4933   -1.5336   -0.1206 H   0  0  0  0  0  0  0  0  0  0  0  0
    6.0525   -1.9839   -0.2623 H   0  0  0  0  0  0  0  0  0  0  0  0
    3.5736   -1.6521   -0.0112 H   0  0  0  0  0  0  0  0  0  0  0  0
    4.2962    2.1425    1.7376 H   0  0  0  0  0  0  0  0  0  0  0  0
    6.7484    1.7830    1.4745 H   0  0  0  0  0  0  0  0  0  0  0  0
    1.4891    1.1689   -2.3583 H   0  0  0  0  0  0  0  0  0  0  0  0
    2.5005   -0.0672   -1.4609 H   0  0  0  0  0  0  0  0  0  0  0  0
    0.5718   -1.5357   -1.5441 H   0  0  0  0  0  0  0  0  0  0  0  0
   -0.8381   -0.6231    0.3188 H   0  0  0  0  0  0  0  0  0  0  0  0
   -0.5290    2.2089   -0.7596 H   0  0  0  0  0  0  0  0  0  0  0  0
   -0.3932    1.5614    0.8947 H   0  0  0  0  0  0  0  0  0  0  0  0
   -0.7544   -0.8219   -3.3407 H   0  0  0  0  0  0  0  0  0  0  0  0
   -0.4362    0.9824   -2.9730 H   0  0  0  0  0  0  0  0  0  0  0  0
   -3.2872    0.0433    0.4620 H   0  0  0  0  0  0  0  0  0  0  0  0
   -5.1051   -0.2878    1.8049 H   0  0  0  0  0  0  0  0  0  0  0  0
   -7.5337   -0.2894    2.1969 H   0  0  0  0  0  0  0  0  0  0  0  0
   -8.1892    0.3107   -1.9450 H   0  0  0  0  0  0  0  0  0  0  0  0
   -5.8377    0.3186   -2.3144 H   0  0  0  0  0  0  0  0  0  0  0  0
  1  2  1  0
  2  3  1  0
  3  4  2  0
  4  5  1  0
  5  6  2  0
  6  7  1  0
  7  8  2  0
  6  9  1  0
  9 10  2  0
  9 11  2  0
  9 12  1  0
 12 13  1  0
 13 14  1  0
 14 15  1  0
 15 16  1  0
 15 17  1  0
 17 18  1  0
 17 19  1  0
 19 20  2  0
 19 21  1  0
 21 22  1  0
 22 23  2  0
 23 24  1  0
 24 25  2  0
 25 26  1  0
 26 27  2  0
 25 28  1  0
 28 29  3  0
  8  3  1  0
 16 12  1  0
 27 22  1  0
 18 14  1  0
  1 30  1  0
  1 31  1  0
  1 32  1  0
  4 33  1  0
  5 34  1  0
  7 35  1  0
  8 36  1  0
 13 37  1  0
 13 38  1  0
 14 39  1  1
 15 40  1  1
 16 41  1  0
 16 42  1  0
 18 43  1  0
 18 44  1  0
 21 45  1  0
 23 46  1  0
 24 47  1  0
 26 48  1  0
 27 49  1  0
M  END
$$$$
[H]c1nc(N([H])c2c([H])c([H])c(N3C([H])([H])C([H])([H])C([H])(N4C([H])([H])C([H])([H])C([H])([H])C([H])([H])C4([H])[H])C([H])([H])C3([H])[H])c([H])c2OC([H])([H])[H])nc(N([H])c2c([H])c([H])c([H])c([H])c2S(=O)(=O)C([H])(C([H])([H])[H])C([H])([H])[H])c1Cl
     RDKit          3D

 80 84  0  0  0  0  0  0  0  0999 V2000
    0.6013    3.2247   -1.7319 C   0  0  0  0  0  0  0  0  0  0  0  0
   -0.1703    2.1434   -1.2168 O   0  0  0  0  0  0  0  0  0  0  0  0
    0.4716    1.0979   -0.5363 C   0  0  0  0  0  0  0  0  0  0  0  0
    1.8317    1.1416   -0.3822 C   0  0  0  0  0  0  0  0  0  0  0  0
    2.4759    0.1361    0.2756 C   0  0  0  0  0  0  0  0  0  0  0  0
    1.7236   -0.9023    0.7694 C   0  0  0  0  0  0  0  0  0  0  0  0
    0.3423   -0.9295    0.6031 C   0  0  0  0  0  0  0  0  0  0  0  0
   -0.3385    0.0691   -0.0573 C   0  0  0  0  0  0  0  0  0  0  0  0
   -1.7239    0.1236   -0.2735 N   0  0  0  0  0  0  0  0  0  0  0  0
   -2.6985   -0.8425    0.0627 C   0  0  0  0  0  0  0  0  0  0  0  0
   -2.4949   -2.0067    0.6583 N   0  0  0  0  0  0  0  0  0  0  0  0
   -3.5059   -2.8405    0.8915 C   0  0  0  0  0  0  0  0  0  0  0  0
   -4.8046   -2.5651    0.5417 C   0  0  0  0  0  0  0  0  0  0  0  0
   -6.1108   -3.6867    0.8595 Cl  0  0  0  0  0  0  0  0  0  0  0  0
   -5.0484   -1.3249   -0.0961 C   0  0  0  0  0  0  0  0  0  0  0  0
   -6.3685   -1.0114   -0.4714 N   0  0  0  0  0  0  0  0  0  0  0  0
   -6.8022    0.1565   -1.1088 C   0  0  0  0  0  0  0  0  0  0  0  0
   -5.9491    1.0828   -1.6893 C   0  0  0  0  0  0  0  0  0  0  0  0
   -6.3900    2.1983   -2.4109 C   0  0  0  0  0  0  0  0  0  0  0  0
   -7.7335    2.3953   -2.5575 C   0  0  0  0  0  0  0  0  0  0  0  0
   -8.5936    1.4953   -1.9910 C   0  0  0  0  0  0  0  0  0  0  0  0
   -8.1816    0.3629   -1.2577 C   0  0  0  0  0  0  0  0  0  0  0  0
   -9.3740   -0.6276   -0.5141 S   0  0  0  0  0  0  0  0  0  0  0  0
  -10.7237   -0.2577   -1.1916 O   0  0  0  0  0  0  0  0  0  0  0  0
   -9.2561   -2.1069   -0.8840 O   0  0  0  0  0  0  0  0  0  0  0  0
   -9.6494   -0.3712    1.1908 C   0  0  0  0  0  0  0  0  0  0  0  0
   -8.4334   -0.4229    2.0221 C   0  0  0  0  0  0  0  0  0  0  0  0
  -10.3964    0.9743    1.3961 C   0  0  0  0  0  0  0  0  0  0  0  0
   -3.9714   -0.5703   -0.2798 N   0  0  0  0  0  0  0  0  0  0  0  0
    3.9226    0.1616    0.4309 N   0  0  0  0  0  0  0  0  0  0  0  0
    4.4480   -0.7731    1.3637 C   0  0  0  0  0  0  0  0  0  0  0  0
    5.9195   -0.5967    1.5235 C   0  0  0  0  0  0  0  0  0  0  0  0
    6.5963   -0.4499    0.1589 C   0  0  0  0  0  0  0  0  0  0  0  0
    6.1843    0.8778   -0.3697 C   0  0  0  0  0  0  0  0  0  0  0  0
    4.7084    1.0728   -0.3306 C   0  0  0  0  0  0  0  0  0  0  0  0
    7.9829   -0.6311    0.3103 N   0  0  0  0  0  0  0  0  0  0  0  0
    8.4779   -1.8796    0.7468 C   0  0  0  0  0  0  0  0  0  0  0  0
    9.4768   -1.5829    1.8770 C   0  0  0  0  0  0  0  0  0  0  0  0
   10.1723   -0.2767    1.5357 C   0  0  0  0  0  0  0  0  0  0  0  0
   10.2603   -0.0404    0.0409 C   0  0  0  0  0  0  0  0  0  0  0  0
    8.8534    0.0879   -0.5662 C   0  0  0  0  0  0  0  0  0  0  0  0
    1.4356    2.8184   -2.3761 H   0  0  0  0  0  0  0  0  0  0  0  0
   -0.0267    3.8893   -2.3265 H   0  0  0  0  0  0  0  0  0  0  0  0
    1.0819    3.6972   -0.8521 H   0  0  0  0  0  0  0  0  0  0  0  0
    2.4137    1.9627   -0.7759 H   0  0  0  0  0  0  0  0  0  0  0  0
    2.2232   -1.7257    1.3036 H   0  0  0  0  0  0  0  0  0  0  0  0
   -0.1658   -1.7773    1.0259 H   0  0  0  0  0  0  0  0  0  0  0  0
   -2.0674    1.0225   -0.7512 H   0  0  0  0  0  0  0  0  0  0  0  0
   -3.3537   -3.8121    1.3855 H   0  0  0  0  0  0  0  0  0  0  0  0
   -7.0711   -1.7919   -0.2514 H   0  0  0  0  0  0  0  0  0  0  0  0
   -4.8765    0.9774   -1.6198 H   0  0  0  0  0  0  0  0  0  0  0  0
   -5.6613    2.8759   -2.8345 H   0  0  0  0  0  0  0  0  0  0  0  0
   -8.0840    3.2536   -3.1153 H   0  0  0  0  0  0  0  0  0  0  0  0
   -9.6741    1.6641   -2.1153 H   0  0  0  0  0  0  0  0  0  0  0  0
  -10.4053   -1.1075    1.6127 H   0  0  0  0  0  0  0  0  0  0  0  0
   -7.9976   -1.4290    2.0169 H   0  0  0  0  0  0  0  0  0  0  0  0
   -8.7480   -0.2405    3.0980 H   0  0  0  0  0  0  0  0  0  0  0  0
   -7.6961    0.3805    1.8033 H   0  0  0  0  0  0  0  0  0  0  0  0
  -11.4588    0.8727    1.1040 H   0  0  0  0  0  0  0  0  0  0  0  0
  -10.3343    1.2032    2.4601 H   0  0  0  0  0  0  0  0  0  0  0  0
   -9.9581    1.7377    0.7281 H   0  0  0  0  0  0  0  0  0  0  0  0
    3.9834   -0.6899    2.3752 H   0  0  0  0  0  0  0  0  0  0  0  0
    4.2845   -1.8036    0.9591 H   0  0  0  0  0  0  0  0  0  0  0  0
    6.3932   -1.4533    2.0291 H   0  0  0  0  0  0  0  0  0  0  0  0
    6.1856    0.3487    2.0709 H   0  0  0  0  0  0  0  0  0  0  0  0
    6.1034   -1.2402   -0.4831 H   0  0  0  0  0  0  0  0  0  0  0  0
    6.5817    1.0701   -1.3957 H   0  0  0  0  0  0  0  0  0  0  0  0
    6.6592    1.6515    0.2890 H   0  0  0  0  0  0  0  0  0  0  0  0
    4.2809    1.1505   -1.3782 H   0  0  0  0  0  0  0  0  0  0  0  0
    4.4611    2.1089    0.0863 H   0  0  0  0  0  0  0  0  0  0  0  0
    9.0771   -2.4059   -0.0426 H   0  0  0  0  0  0  0  0  0  0  0  0
    7.6906   -2.5655    1.0422 H   0  0  0  0  0  0  0  0  0  0  0  0
    8.8760   -1.4814    2.7991 H   0  0  0  0  0  0  0  0  0  0  0  0
   10.1889   -2.4073    2.0280 H   0  0  0  0  0  0  0  0  0  0  0  0
    9.5286    0.5385    1.9476 H   0  0  0  0  0  0  0  0  0  0  0  0
   11.1971   -0.2469    1.9436 H   0  0  0  0  0  0  0  0  0  0  0  0
   10.8182   -0.8682   -0.4032 H   0  0  0  0  0  0  0  0  0  0  0  0
   10.8333    0.9179   -0.0753 H   0  0  0  0  0  0  0  0  0  0  0  0
    8.9256   -0.3562   -1.5800 H   0  0  0  0  0  0  0  0  0  0  0  0
    8.6260    1.1557   -0.5846 H   0  0  0  0  0  0  0  0  0  0  0  0
  1  2  1  0
  2  3  1  0
  3  4  2  0
  4  5  1  0
  5  6  2  0
  6  7  1  0
  7  8  2  0
  8  9  1  0
  9 10  1  0
 10 11  2  0
 11 12  1  0
 12 13  2  0
 13 14  1  0
 13 15  1  0
 15 16  1  0
 16 17  1  0
 17 18  2  0
 18 19  1  0
 19 20  2  0
 20 21  1  0
 21 22  2  0
 22 23  1  0
 23 24  2  0
 23 25  2  0
 23 26  1  0
 26 27  1  0
 26 28  1  0
 15 29  2  0
  5 30  1  0
 30 31  1  0
 31 32  1  0
 32 33  1  0
 33 34  1  0
 34 35  1  0
 33 36  1  0
 36 37  1  0
 37 38  1  0
 38 39  1  0
 39 40  1  0
 40 41  1  0
  8  3  1  0
 29 10  1  0
 35 30  1  0
 41 36  1  0
 22 17  1  0
  1 42  1  0
  1 43  1  0
  1 44  1  0
  4 45  1  0
  6 46  1  0
  7 47  1  0
  9 48  1  0
 12 49  1  0
 16 50  1  0
 18 51  1  0
 19 52  1  0
 20 53  1  0
 21 54  1  0
 26 55  1  0
 27 56  1  0
 27 57  1  0
 27 58  1  0
 28 59  1  0
 28 60  1  0
 28 61  1  0
 31 62  1  0
 31 63  1  0
 32 64  1  0
 32 65  1  0
 33 66  1  0
 34 67  1  0
 34 68  1  0
 35 69  1  0
 35 70  1  0
 37 71  1  0
 37 72  1  0
 38 73  1  0
 38 74  1  0
 39 75  1  0
 39 76  1  0
 40 77  1  0
 40 78  1  0
 41 79  1  0
 41 80  1  0
M  END
$$$$
[H]O[C@]1([H])[C@]([H])([C@]([H])(O[H])C([H])([H])[H])O[C@@]([H])(n2c([H])nc3c(N([H])[H])nc(-c4oc([H])c([H])c4[H])nc32)[C@]1([H])O[H]
     RDKit          3D

 42 45  0  0  0  0  0  0  0  0999 V2000
    4.2687   -0.1072    2.1860 C   0  0  0  0  0  0  0  0  0  0  0  0
    4.2683   -0.8797    0.8812 C   0  0  1  0  0  0  0  0  0  0  0  0
    4.0555   -2.2076    1.1702 O   0  0  0  0  0  0  0  0  0  0  0  0
    3.2087   -0.2763    0.0020 C   0  0  2  0  0  0  0  0  0  0  0  0
    1.9551   -0.3276    0.5518 O   0  0  0  0  0  0  0  0  0  0  0  0
    1.0215   -0.2423   -0.4516 C   0  0  2  0  0  0  0  0  0  0  0  0
    1.7190   -0.4050   -1.7665 C   0  0  2  0  0  0  0  0  0  0  0  0
    1.0515   -1.2163   -2.6535 O   0  0  0  0  0  0  0  0  0  0  0  0
    3.0406   -1.0317   -1.2994 C   0  0  2  0  0  0  0  0  0  0  0  0
    2.7839   -2.3716   -1.0240 O   0  0  0  0  0  0  0  0  0  0  0  0
    0.2336    0.9630   -0.3626 N   0  0  0  0  0  0  0  0  0  0  0  0
    0.7140    2.2166   -0.4456 C   0  0  0  0  0  0  0  0  0  0  0  0
   -0.3146    3.0939   -0.3194 N   0  0  0  0  0  0  0  0  0  0  0  0
   -1.4468    2.3818   -0.1561 C   0  0  0  0  0  0  0  0  0  0  0  0
   -2.7671    2.7543    0.0169 C   0  0  0  0  0  0  0  0  0  0  0  0
   -3.1152    4.1318    0.0439 N   0  0  0  0  0  0  0  0  0  0  0  0
   -3.6614    1.7603    0.1521 N   0  0  0  0  0  0  0  0  0  0  0  0
   -3.3208    0.4653    0.1248 C   0  0  0  0  0  0  0  0  0  0  0  0
   -2.0532    0.1070   -0.0412 N   0  0  0  0  0  0  0  0  0  0  0  0
   -1.1010    1.0536   -0.1836 C   0  0  0  0  0  0  0  0  0  0  0  0
   -4.3649   -0.5365    0.2804 C   0  0  0  0  0  0  0  0  0  0  0  0
   -4.1688   -1.9123    0.2739 C   0  0  0  0  0  0  0  0  0  0  0  0
   -5.3929   -2.4927    0.4477 C   0  0  0  0  0  0  0  0  0  0  0  0
   -6.2952   -1.4614    0.5547 C   0  0  0  0  0  0  0  0  0  0  0  0
   -5.6507   -0.3331    0.4512 O   0  0  0  0  0  0  0  0  0  0  0  0
    5.2820   -0.0702    2.6460 H   0  0  0  0  0  0  0  0  0  0  0  0
    3.5430   -0.5205    2.9216 H   0  0  0  0  0  0  0  0  0  0  0  0
    3.9285    0.9555    2.0172 H   0  0  0  0  0  0  0  0  0  0  0  0
    5.2537   -0.7609    0.4109 H   0  0  0  0  0  0  0  0  0  0  0  0
    4.9208   -2.7181    1.1939 H   0  0  0  0  0  0  0  0  0  0  0  0
    3.5224    0.7614   -0.2393 H   0  0  0  0  0  0  0  0  0  0  0  0
    0.3297   -1.1268   -0.3359 H   0  0  0  0  0  0  0  0  0  0  0  0
    1.9735    0.5981   -2.1778 H   0  0  0  0  0  0  0  0  0  0  0  0
    1.5655   -1.2199   -3.4992 H   0  0  0  0  0  0  0  0  0  0  0  0
    3.8487   -0.8715   -2.0095 H   0  0  0  0  0  0  0  0  0  0  0  0
    2.0814   -2.3667   -0.2985 H   0  0  0  0  0  0  0  0  0  0  0  0
    1.7594    2.4435   -0.5902 H   0  0  0  0  0  0  0  0  0  0  0  0
   -3.4926    4.6583   -0.7665 H   0  0  0  0  0  0  0  0  0  0  0  0
   -2.9768    4.6354    0.9465 H   0  0  0  0  0  0  0  0  0  0  0  0
   -3.2317   -2.4251    0.1547 H   0  0  0  0  0  0  0  0  0  0  0  0
   -5.6072   -3.5419    0.4919 H   0  0  0  0  0  0  0  0  0  0  0  0
   -7.3679   -1.5568    0.7010 H   0  0  0  0  0  0  0  0  0  0  0  0
  1  2  1  0
  2  3  1  0
  2  4  1  0
  4  5  1  0
  5  6  1  0
  6  7  1  0
  7  8  1  0
  7  9  1  0
  9 10  1  0
  6 11  1  0
 11 12  1  0
 12 13  2  0
 13 14  1  0
 14 15  2  0
 15 16  1  0
 15 17  1  0
 17 18  2  0
 18 19  1  0
 19 20  2  0
 18 21  1  0
 21 22  2  0
 22 23  1  0
 23 24  2  0
 24 25  1  0
  9  4  1  0
 20 11  1  0
 25 21  1  0
 20 14  1  0
  1 26  1  0
  1 27  1  0
  1 28  1  0
  2 29  1  6
  3 30  1  0
  4 31  1  6
  6 32  1  1
  7 33  1  6
  8 34  1  0
  9 35  1  6
 10 36  1  0
 12 37  1  0
 16 38  1  0
 16 39  1  0
 22 40  1  0
 23 41  1  0
 24 42  1  0
M  END
$$$$
[H]c1c([H])c(C(=O)N([H])[C@]([H])(c2c([H])c([H])c(OC([H])([H])[H])c(OC([H])([H])[H])c2[H])C([H])([H])c2c(Cl)c([H])[n+]([O-])c([H])c2Cl)c([H])c(C(F)(F)F)c1[H]
     RDKit          3D

 53 55  0  0  0  0  0  0  0  0999 V2000
   -4.9995   -3.2545   -0.7226 C   0  0  0  0  0  0  0  0  0  0  0  0
   -4.4923   -2.5874    0.3986 O   0  0  0  0  0  0  0  0  0  0  0  0
   -3.3787   -1.7554    0.1932 C   0  0  0  0  0  0  0  0  0  0  0  0
   -2.6768   -1.6541   -0.9221 C   0  0  0  0  0  0  0  0  0  0  0  0
   -1.5996   -0.7993   -1.0658 C   0  0  0  0  0  0  0  0  0  0  0  0
   -1.2275    0.0324    0.0533 C   0  0  0  0  0  0  0  0  0  0  0  0
   -1.9491   -0.0931    1.1792 C   0  0  0  0  0  0  0  0  0  0  0  0
   -3.0213   -0.9431    1.3429 C   0  0  0  0  0  0  0  0  0  0  0  0
   -3.7784   -1.1333    2.3837 O   0  0  0  0  0  0  0  0  0  0  0  0
   -4.5371   -1.3230    3.4287 C   0  0  0  0  0  0  0  0  0  0  0  0
   -0.0283    0.7978   -0.2622 C   0  0  2  0  0  0  0  0  0  0  0  0
   -0.0165    1.7428   -1.4002 C   0  0  0  0  0  0  0  0  0  0  0  0
   -0.4185    3.1449   -1.1907 C   0  0  0  0  0  0  0  0  0  0  0  0
   -1.5748    3.7144   -0.9581 C   0  0  0  0  0  0  0  0  0  0  0  0
   -3.0552    2.7777   -0.9928 Cl  0  0  0  0  0  0  0  0  0  0  0  0
   -1.6339    5.0879   -0.7273 C   0  0  0  0  0  0  0  0  0  0  0  0
   -0.5641    5.8838   -0.7245 N   0  0  0  0  0  0  0  0  0  0  0  0
   -0.7206    7.2328   -0.4577 O   0  0  0  0  0  0  0  0  0  0  0  0
    0.6394    5.3312   -0.9620 C   0  0  0  0  0  0  0  0  0  0  0  0
    0.7585    4.0170   -1.1931 C   0  0  0  0  0  0  0  0  0  0  0  0
    2.3370    3.3447   -1.5298 Cl  0  0  0  0  0  0  0  0  0  0  0  0
    1.1994    0.1429   -0.1137 N   0  0  0  0  0  0  0  0  0  0  0  0
    1.8809   -0.6951   -1.0251 C   0  0  0  0  0  0  0  0  0  0  0  0
    1.4810   -0.9681   -2.1893 O   0  0  0  0  0  0  0  0  0  0  0  0
    3.1395   -1.3269   -0.6479 C   0  0  0  0  0  0  0  0  0  0  0  0
    3.6924   -2.2912   -1.4950 C   0  0  0  0  0  0  0  0  0  0  0  0
    4.8254   -2.9726   -1.1892 C   0  0  0  0  0  0  0  0  0  0  0  0
    5.4457   -2.7053    0.0081 C   0  0  0  0  0  0  0  0  0  0  0  0
    4.9353   -1.7656    0.8685 C   0  0  0  0  0  0  0  0  0  0  0  0
    3.7667   -1.0829    0.5150 C   0  0  0  0  0  0  0  0  0  0  0  0
    5.5532   -1.4526    2.2059 C   0  0  0  0  0  0  0  0  0  0  0  0
    6.1544   -2.6166    2.6367 F   0  0  0  0  0  0  0  0  0  0  0  0
    6.3684   -0.3809    2.1228 F   0  0  0  0  0  0  0  0  0  0  0  0
    4.5187   -1.1456    3.0928 F   0  0  0  0  0  0  0  0  0  0  0  0
   -5.6737   -4.1056   -0.5190 H   0  0  0  0  0  0  0  0  0  0  0  0
   -5.5944   -2.4399   -1.2879 H   0  0  0  0  0  0  0  0  0  0  0  0
   -4.2001   -3.5009   -1.4236 H   0  0  0  0  0  0  0  0  0  0  0  0
   -2.8520   -2.2890   -1.8055 H   0  0  0  0  0  0  0  0  0  0  0  0
   -1.0673   -0.7686   -1.9597 H   0  0  0  0  0  0  0  0  0  0  0  0
   -1.6722    0.5488    2.0332 H   0  0  0  0  0  0  0  0  0  0  0  0
   -5.0747   -0.4555    3.8550 H   0  0  0  0  0  0  0  0  0  0  0  0
   -5.4521   -2.0261    3.1750 H   0  0  0  0  0  0  0  0  0  0  0  0
   -4.0708   -1.9063    4.2720 H   0  0  0  0  0  0  0  0  0  0  0  0
   -0.0415    1.5805    0.6548 H   0  0  0  0  0  0  0  0  0  0  0  0
   -0.9106    1.3604   -2.1384 H   0  0  0  0  0  0  0  0  0  0  0  0
    0.8201    1.6658   -2.0978 H   0  0  0  0  0  0  0  0  0  0  0  0
   -2.6417    5.5074   -0.5349 H   0  0  0  0  0  0  0  0  0  0  0  0
    1.4859    6.0177   -0.9611 H   0  0  0  0  0  0  0  0  0  0  0  0
    1.7099    0.2992    0.8229 H   0  0  0  0  0  0  0  0  0  0  0  0
    3.2055   -2.5100   -2.4140 H   0  0  0  0  0  0  0  0  0  0  0  0
    5.2320   -3.7334   -1.8600 H   0  0  0  0  0  0  0  0  0  0  0  0
    6.3449   -3.2157    0.2983 H   0  0  0  0  0  0  0  0  0  0  0  0
    3.4288   -0.3325    1.2303 H   0  0  0  0  0  0  0  0  0  0  0  0
  1  2  1  0
  2  3  1  0
  3  4  2  0
  4  5  1  0
  5  6  2  0
  6  7  1  0
  7  8  2  0
  8  9  1  0
  9 10  1  0
  6 11  1  0
 11 12  1  0
 12 13  1  0
 13 14  2  0
 14 15  1  0
 14 16  1  0
 16 17  2  0
 17 18  1  0
 17 19  1  0
 19 20  2  0
 20 21  1  0
 11 22  1  0
 22 23  1  0
 23 24  2  0
 23 25  1  0
 25 26  2  0
 26 27  1  0
 27 28  2  0
 28 29  1  0
 29 30  2  0
 29 31  1  0
 31 32  1  0
 31 33  1  0
 31 34  1  0
  8  3  1  0
 20 13  1  0
 30 25  1  0
  1 35  1  0
  1 36  1  0
  1 37  1  0
  4 38  1  0
  5 39  1  0
  7 40  1  0
 10 41  1  0
 10 42  1  0
 10 43  1  0
 11 44  1  1
 12 45  1  0
 12 46  1  0
 16 47  1  0
 19 48  1  0
 22 49  1  0
 26 50  1  0
 27 51  1  0
 28 52  1  0
 30 53  1  0
M  CHG  2  17   1  18  -1
M  END
$$$$
[H]Oc1c([H])c([H])c(C([H])([H])[C@@]([H])(C(=O)N2C([H])([H])C([H])([H])C([H])([H])[C@@]2([H])C(=O)N([H])[C@]([H])(C(=O)N([H])[C@]([H])(C([H])(C([H])([H])[H])C([H])([H])[H])C(C([H])([H])[H])(C([H])([H])[H])C([H])([H])[H])C([H])([H])c2c([H])c([H])c(O[H])c([H])c2[H])N([H])[H])c([H])c1[H]
     RDKit          3D

 84 86  0  0  0  0  0  0  0  0999 V2000
   -5.1589    2.1103   -0.9020 C   0  0  0  0  0  0  0  0  0  0  0  0
   -5.6422    1.5158    0.4378 C   0  0  0  0  0  0  0  0  0  0  0  0
   -7.0396    0.9794    0.0668 C   0  0  0  0  0  0  0  0  0  0  0  0
   -4.7206    0.4035    0.8546 C   0  0  1  0  0  0  0  0  0  0  0  0
   -3.3832    0.9875    0.9339 N   0  0  0  0  0  0  0  0  0  0  0  0
   -2.2062    0.3999    0.4304 C   0  0  0  0  0  0  0  0  0  0  0  0
   -2.2409   -0.6983   -0.1333 O   0  0  0  0  0  0  0  0  0  0  0  0
   -0.9218    1.1194    0.5925 C   0  0  2  0  0  0  0  0  0  0  0  0
   -0.6058    1.9756   -0.6011 C   0  0  0  0  0  0  0  0  0  0  0  0
   -0.4605    1.2600   -1.8685 C   0  0  0  0  0  0  0  0  0  0  0  0
   -1.5793    1.0571   -2.6661 C   0  0  0  0  0  0  0  0  0  0  0  0
   -1.5338    0.4040   -3.8784 C   0  0  0  0  0  0  0  0  0  0  0  0
   -0.3431   -0.0847   -4.3557 C   0  0  0  0  0  0  0  0  0  0  0  0
   -0.2270   -0.7519   -5.5686 O   0  0  0  0  0  0  0  0  0  0  0  0
    0.7897    0.1138   -3.5618 C   0  0  0  0  0  0  0  0  0  0  0  0
    0.7507    0.7634   -2.3538 C   0  0  0  0  0  0  0  0  0  0  0  0
    0.1720    0.2029    0.8948 N   0  0  0  0  0  0  0  0  0  0  0  0
    0.6332   -0.0036    2.2086 C   0  0  0  0  0  0  0  0  0  0  0  0
    0.0255    0.6476    3.1334 O   0  0  0  0  0  0  0  0  0  0  0  0
    1.7266   -0.8759    2.6495 C   0  0  2  0  0  0  0  0  0  0  0  0
    2.4061   -0.2519    3.8513 C   0  0  0  0  0  0  0  0  0  0  0  0
    3.6405    0.4425    3.3611 C   0  0  0  0  0  0  0  0  0  0  0  0
    3.6369    0.2091    1.8728 C   0  0  0  0  0  0  0  0  0  0  0  0
    2.8108   -1.0118    1.6950 N   0  0  0  0  0  0  0  0  0  0  0  0
    3.1329   -2.0274    0.7858 C   0  0  0  0  0  0  0  0  0  0  0  0
    2.4166   -3.0753    0.6998 O   0  0  0  0  0  0  0  0  0  0  0  0
    4.3148   -1.9578   -0.1280 C   0  0  1  0  0  0  0  0  0  0  0  0
    4.5046   -3.1909   -0.8250 N   0  0  0  0  0  0  0  0  0  0  0  0
    4.1199   -0.8495   -1.1514 C   0  0  0  0  0  0  0  0  0  0  0  0
    5.2583   -0.7110   -2.0817 C   0  0  0  0  0  0  0  0  0  0  0  0
    5.3301   -1.4044   -3.2828 C   0  0  0  0  0  0  0  0  0  0  0  0
    6.3819   -1.2431   -4.1482 C   0  0  0  0  0  0  0  0  0  0  0  0
    7.3991   -0.3837   -3.8434 C   0  0  0  0  0  0  0  0  0  0  0  0
    8.4731   -0.2144   -4.7236 O   0  0  0  0  0  0  0  0  0  0  0  0
    7.3838    0.3304   -2.6664 C   0  0  0  0  0  0  0  0  0  0  0  0
    6.3215    0.1548   -1.8131 C   0  0  0  0  0  0  0  0  0  0  0  0
   -5.0662   -0.1566    2.2373 C   0  0  0  0  0  0  0  0  0  0  0  0
   -5.0006    0.9062    3.3133 C   0  0  0  0  0  0  0  0  0  0  0  0
   -4.0371   -1.2580    2.5316 C   0  0  0  0  0  0  0  0  0  0  0  0
   -6.4027   -0.8166    2.2947 C   0  0  0  0  0  0  0  0  0  0  0  0
   -5.4227    1.4242   -1.7308 H   0  0  0  0  0  0  0  0  0  0  0  0
   -4.1146    2.3985   -0.8546 H   0  0  0  0  0  0  0  0  0  0  0  0
   -5.7529    3.0274   -1.0555 H   0  0  0  0  0  0  0  0  0  0  0  0
   -5.7260    2.3523    1.1326 H   0  0  0  0  0  0  0  0  0  0  0  0
   -6.9366    0.0232   -0.4700 H   0  0  0  0  0  0  0  0  0  0  0  0
   -7.7433    1.0073    0.8992 H   0  0  0  0  0  0  0  0  0  0  0  0
   -7.4932    1.6746   -0.7080 H   0  0  0  0  0  0  0  0  0  0  0  0
   -4.8118   -0.4343    0.1693 H   0  0  0  0  0  0  0  0  0  0  0  0
   -3.3224    1.9149    1.3966 H   0  0  0  0  0  0  0  0  0  0  0  0
   -1.0382    1.7520    1.4991 H   0  0  0  0  0  0  0  0  0  0  0  0
    0.2769    2.6094   -0.4380 H   0  0  0  0  0  0  0  0  0  0  0  0
   -1.4891    2.6841   -0.6875 H   0  0  0  0  0  0  0  0  0  0  0  0
   -2.5571    1.4117   -2.3703 H   0  0  0  0  0  0  0  0  0  0  0  0
   -2.4252    0.2704   -4.4620 H   0  0  0  0  0  0  0  0  0  0  0  0
   -0.3207   -1.7520   -5.6824 H   0  0  0  0  0  0  0  0  0  0  0  0
    1.7313   -0.2701   -3.9365 H   0  0  0  0  0  0  0  0  0  0  0  0
    1.5952    0.9349   -1.7209 H   0  0  0  0  0  0  0  0  0  0  0  0
    0.6173   -0.3176    0.1151 H   0  0  0  0  0  0  0  0  0  0  0  0
    1.2947   -1.8739    2.9014 H   0  0  0  0  0  0  0  0  0  0  0  0
    1.7136    0.5114    4.2691 H   0  0  0  0  0  0  0  0  0  0  0  0
    2.6302   -1.0148    4.6314 H   0  0  0  0  0  0  0  0  0  0  0  0
    4.5574    0.0402    3.8495 H   0  0  0  0  0  0  0  0  0  0  0  0
    3.5478    1.5435    3.5376 H   0  0  0  0  0  0  0  0  0  0  0  0
    3.1636    1.0553    1.3610 H   0  0  0  0  0  0  0  0  0  0  0  0
    4.6897    0.0135    1.5718 H   0  0  0  0  0  0  0  0  0  0  0  0
    5.2332   -1.7198    0.4414 H   0  0  0  0  0  0  0  0  0  0  0  0
    3.8881   -3.3882   -1.6100 H   0  0  0  0  0  0  0  0  0  0  0  0
    4.8359   -3.9604   -0.2432 H   0  0  0  0  0  0  0  0  0  0  0  0
    3.9481    0.1301   -0.6944 H   0  0  0  0  0  0  0  0  0  0  0  0
    3.2146   -1.0528   -1.7728 H   0  0  0  0  0  0  0  0  0  0  0  0
    4.5470   -2.0829   -3.5431 H   0  0  0  0  0  0  0  0  0  0  0  0
    6.4630   -1.7746   -5.1072 H   0  0  0  0  0  0  0  0  0  0  0  0
    8.3434    0.5317   -5.4186 H   0  0  0  0  0  0  0  0  0  0  0  0
    8.1879    0.9904   -2.4601 H   0  0  0  0  0  0  0  0  0  0  0  0
    6.2877    0.7007   -0.8886 H   0  0  0  0  0  0  0  0  0  0  0  0
   -4.4968    0.4930    4.2192 H   0  0  0  0  0  0  0  0  0  0  0  0
   -6.0448    1.1589    3.6421 H   0  0  0  0  0  0  0  0  0  0  0  0
   -4.4519    1.8010    3.0358 H   0  0  0  0  0  0  0  0  0  0  0  0
   -3.0791   -0.8068    2.7866 H   0  0  0  0  0  0  0  0  0  0  0  0
   -4.0260   -1.9893    1.7048 H   0  0  0  0  0  0  0  0  0  0  0  0
   -4.3706   -1.8560    3.4317 H   0  0  0  0  0  0  0  0  0  0  0  0
   -7.1734   -0.1831    2.7982 H   0  0  0  0  0  0  0  0  0  0  0  0
   -6.2982   -1.6783    3.0523 H   0  0  0  0  0  0  0  0  0  0  0  0
   -6.7314   -1.3165    1.3881 H   0  0  0  0  0  0  0  0  0  0  0  0
  1  2  1  0
  2  3  1  0
  2  4  1  0
  4  5  1  0
  5  6  1  0
  6  7  2  0
  6  8  1  0
  8  9  1  0
  9 10  1  0
 10 11  2  0
 11 12  1  0
 12 13  2  0
 13 14  1  0
 13 15  1  0
 15 16  2  0
  8 17  1  0
 17 18  1  0
 18 19  2  0
 18 20  1  0
 20 21  1  0
 21 22  1  0
 22 23  1  0
 23 24  1  0
 24 25  1  0
 25 26  2  0
 25 27  1  0
 27 28  1  0
 27 29  1  0
 29 30  1  0
 30 31  2  0
 31 32  1  0
 32 33  2  0
 33 34  1  0
 33 35  1  0
 35 36  2  0
  4 37  1  0
 37 38  1  0
 37 39  1  0
 37 40  1  0
 16 10  1  0
 24 20  1  0
 36 30  1  0
  1 41  1  0
  1 42  1  0
  1 43  1  0
  2 44  1  0
  3 45  1  0
  3 46  1  0
  3 47  1  0
  4 48  1  6
  5 49  1  0
  8 50  1  1
  9 51  1  0
  9 52  1  0
 11 53  1  0
 12 54  1  0
 14 55  1  0
 15 56  1  0
 16 57  1  0
 17 58  1  0
 20 59  1  1
 21 60  1  0
 21 61  1  0
 22 62  1  0
 22 63  1  0
 23 64  1  0
 23 65  1  0
 27 66  1  1
 28 67  1  0
 28 68  1  0
 29 69  1  0
 29 70  1  0
 31 71  1  0
 32 72  1  0
 34 73  1  0
 35 74  1  0
 36 75  1  0
 38 76  1  0
 38 77  1  0
 38 78  1  0
 39 79  1  0
 39 80  1  0
 39 81  1  0
 40 82  1  0
 40 83  1  0
 40 84  1  0
M  END
$$$$
[H]c1nc(N([H])c2c([H])c([H])c(N3C([H])([H])C([H])([H])N(C(=O)C4([H])C([H])([H])C4([H])[H])C([H])([H])C3([H])[H])c([H])c2OC([H])([H])[H])nc(N([H])c2c([H])c([H])c([H])c([H])c2P(=O)(C([H])([H])[H])C([H])([H])[H])c1Cl
     RDKit          3D

 70 74  0  0  0  0  0  0  0  0999 V2000
    2.6863   -0.3041    4.8590 C   0  0  0  0  0  0  0  0  0  0  0  0
    1.4126   -0.0641    4.3186 O   0  0  0  0  0  0  0  0  0  0  0  0
    1.2213    0.1567    2.9528 C   0  0  0  0  0  0  0  0  0  0  0  0
    2.2899    0.1441    2.0936 C   0  0  0  0  0  0  0  0  0  0  0  0
    2.1655    0.3550    0.7390 C   0  0  0  0  0  0  0  0  0  0  0  0
    0.8811    0.5830    0.2930 C   0  0  0  0  0  0  0  0  0  0  0  0
   -0.2156    0.5978    1.1643 C   0  0  0  0  0  0  0  0  0  0  0  0
   -0.0948    0.3879    2.5114 C   0  0  0  0  0  0  0  0  0  0  0  0
   -1.1358    0.4373    3.4538 N   0  0  0  0  0  0  0  0  0  0  0  0
   -2.5184    0.4140    3.2660 C   0  0  0  0  0  0  0  0  0  0  0  0
   -3.2984    0.5417    4.4057 N   0  0  0  0  0  0  0  0  0  0  0  0
   -4.6051    0.4952    4.2820 C   0  0  0  0  0  0  0  0  0  0  0  0
   -5.2001    0.3235    3.0568 C   0  0  0  0  0  0  0  0  0  0  0  0
   -6.9328    0.2758    3.0104 Cl  0  0  0  0  0  0  0  0  0  0  0  0
   -4.4417    0.1876    1.8696 C   0  0  0  0  0  0  0  0  0  0  0  0
   -5.1490    0.0545    0.6864 N   0  0  0  0  0  0  0  0  0  0  0  0
   -4.6805   -0.1753   -0.6052 C   0  0  0  0  0  0  0  0  0  0  0  0
   -3.4110   -0.6113   -0.8561 C   0  0  0  0  0  0  0  0  0  0  0  0
   -2.9655   -0.8903   -2.1579 C   0  0  0  0  0  0  0  0  0  0  0  0
   -3.8223   -0.7255   -3.2235 C   0  0  0  0  0  0  0  0  0  0  0  0
   -5.1015   -0.2854   -2.9542 C   0  0  0  0  0  0  0  0  0  0  0  0
   -5.5425   -0.0103   -1.6822 C   0  0  0  0  0  0  0  0  0  0  0  0
   -7.2238    0.5549   -1.4986 P   0  0  0  0  0  0  0  0  0  0  0  0
   -7.9583    0.7805   -3.1583 C   0  0  0  0  0  0  0  0  0  0  0  0
   -7.3700    2.0975   -0.6069 C   0  0  0  0  0  0  0  0  0  0  0  0
   -8.0106   -0.5223   -0.7545 O   0  0  0  0  0  0  0  0  0  0  0  0
   -3.1215    0.2472    2.0868 N   0  0  0  0  0  0  0  0  0  0  0  0
    3.2745    0.3558   -0.1411 N   0  0  0  0  0  0  0  0  0  0  0  0
    4.6064    0.5261    0.3894 C   0  0  0  0  0  0  0  0  0  0  0  0
    5.3133   -0.8179    0.1221 C   0  0  0  0  0  0  0  0  0  0  0  0
    5.3085   -0.9643   -1.3033 N   0  0  0  0  0  0  0  0  0  0  0  0
    3.9752   -1.0986   -1.9163 C   0  0  0  0  0  0  0  0  0  0  0  0
    3.1892    0.1790   -1.5790 C   0  0  0  0  0  0  0  0  0  0  0  0
    6.4806   -0.9737   -2.0619 C   0  0  0  0  0  0  0  0  0  0  0  0
    6.4549   -1.1113   -3.3371 O   0  0  0  0  0  0  0  0  0  0  0  0
    7.8151   -0.8274   -1.4601 C   0  0  0  0  0  0  0  0  0  0  0  0
    8.8891   -1.6469   -2.1538 C   0  0  0  0  0  0  0  0  0  0  0  0
    8.8978   -0.1886   -2.3168 C   0  0  0  0  0  0  0  0  0  0  0  0
    3.3353    0.6010    4.8771 H   0  0  0  0  0  0  0  0  0  0  0  0
    2.5914   -0.7136    5.8833 H   0  0  0  0  0  0  0  0  0  0  0  0
    3.1970   -1.0838    4.2440 H   0  0  0  0  0  0  0  0  0  0  0  0
    3.3060   -0.0511    2.4889 H   0  0  0  0  0  0  0  0  0  0  0  0
    0.7195    0.7584   -0.7677 H   0  0  0  0  0  0  0  0  0  0  0  0
   -1.1765    0.8052    0.7516 H   0  0  0  0  0  0  0  0  0  0  0  0
   -0.8168    0.5086    4.4881 H   0  0  0  0  0  0  0  0  0  0  0  0
   -5.1963    0.6001    5.2040 H   0  0  0  0  0  0  0  0  0  0  0  0
   -6.2186    0.1352    0.7610 H   0  0  0  0  0  0  0  0  0  0  0  0
   -2.6730   -0.7948   -0.0922 H   0  0  0  0  0  0  0  0  0  0  0  0
   -1.9559   -1.2352   -2.3477 H   0  0  0  0  0  0  0  0  0  0  0  0
   -3.4902   -0.9374   -4.2297 H   0  0  0  0  0  0  0  0  0  0  0  0
   -5.7520   -0.1676   -3.8304 H   0  0  0  0  0  0  0  0  0  0  0  0
   -7.2552    1.4450   -3.7120 H   0  0  0  0  0  0  0  0  0  0  0  0
   -8.0111   -0.2018   -3.6449 H   0  0  0  0  0  0  0  0  0  0  0  0
   -8.9744    1.1991   -3.0707 H   0  0  0  0  0  0  0  0  0  0  0  0
   -7.6985    1.9898    0.4478 H   0  0  0  0  0  0  0  0  0  0  0  0
   -6.4208    2.7042   -0.6721 H   0  0  0  0  0  0  0  0  0  0  0  0
   -8.1477    2.7221   -1.0914 H   0  0  0  0  0  0  0  0  0  0  0  0
    4.6885    0.8229    1.4219 H   0  0  0  0  0  0  0  0  0  0  0  0
    5.1276    1.3284   -0.2095 H   0  0  0  0  0  0  0  0  0  0  0  0
    4.6026   -1.5773    0.5742 H   0  0  0  0  0  0  0  0  0  0  0  0
    6.2716   -0.8273    0.6242 H   0  0  0  0  0  0  0  0  0  0  0  0
    3.4731   -1.9770   -1.4675 H   0  0  0  0  0  0  0  0  0  0  0  0
    4.0592   -1.2480   -2.9962 H   0  0  0  0  0  0  0  0  0  0  0  0
    2.1807    0.1211   -1.9763 H   0  0  0  0  0  0  0  0  0  0  0  0
    3.7666    1.0148   -2.0469 H   0  0  0  0  0  0  0  0  0  0  0  0
    7.9354   -0.6902   -0.3571 H   0  0  0  0  0  0  0  0  0  0  0  0
    9.6806   -2.1061   -1.4968 H   0  0  0  0  0  0  0  0  0  0  0  0
    8.6098   -2.3031   -3.0016 H   0  0  0  0  0  0  0  0  0  0  0  0
    8.5461    0.2069   -3.3016 H   0  0  0  0  0  0  0  0  0  0  0  0
    9.6337    0.4736   -1.8174 H   0  0  0  0  0  0  0  0  0  0  0  0
  1  2  1  0
  2  3  1  0
  3  4  2  0
  4  5  1  0
  5  6  2  0
  6  7  1  0
  7  8  2  0
  8  9  1  0
  9 10  1  0
 10 11  2  0
 11 12  1  0
 12 13  2  0
 13 14  1  0
 13 15  1  0
 15 16  1  0
 16 17  1  0
 17 18  2  0
 18 19  1  0
 19 20  2  0
 20 21  1  0
 21 22  2  0
 22 23  1  0
 23 24  1  0
 23 25  1  0
 23 26  2  0
 15 27  2  0
  5 28  1  0
 28 29  1  0
 29 30  1  0
 30 31  1  0
 31 32  1  0
 32 33  1  0
 31 34  1  0
 34 35  2  0
 34 36  1  0
 36 37  1  0
 37 38  1  0
  8  3  1  0
 27 10  1  0
 33 28  1  0
 38 36  1  0
 22 17  1  0
  1 39  1  0
  1 40  1  0
  1 41  1  0
  4 42  1  0
  6 43  1  0
  7 44  1  0
  9 45  1  0
 12 46  1  0
 16 47  1  0
 18 48  1  0
 19 49  1  0
 20 50  1  0
 21 51  1  0
 24 52  1  0
 24 53  1  0
 24 54  1  0
 25 55  1  0
 25 56  1  0
 25 57  1  0
 29 58  1  0
 29 59  1  0
 30 60  1  0
 30 61  1  0
 32 62  1  0
 32 63  1  0
 33 64  1  0
 33 65  1  0
 36 66  1  0
 37 67  1  0
 37 68  1  0
 38 69  1  0
 38 70  1  0
M  END
$$$$
[H]c1nc(N2C([H])([H])C([H])([H])N(C([H])([H])[H])C([H])([H])C2([H])[H])c([H])c([H])c1-c1c([H])nc2c(c1[H])c([H])c([H])n2[H]
     RDKit          3D

 41 44  0  0  0  0  0  0  0  0999 V2000
   -5.8152    1.1259   -0.0773 C   0  0  0  0  0  0  0  0  0  0  0  0
   -5.3502   -0.2187    0.1986 N   0  0  0  0  0  0  0  0  0  0  0  0
   -4.5962   -0.2480    1.4265 C   0  0  0  0  0  0  0  0  0  0  0  0
   -3.2230    0.3696    1.1580 C   0  0  0  0  0  0  0  0  0  0  0  0
   -2.5383   -0.5489    0.2603 N   0  0  0  0  0  0  0  0  0  0  0  0
   -3.3659   -1.5055   -0.4466 C   0  0  0  0  0  0  0  0  0  0  0  0
   -4.6124   -0.7662   -0.9093 C   0  0  0  0  0  0  0  0  0  0  0  0
   -1.1303   -0.4921    0.1005 C   0  0  0  0  0  0  0  0  0  0  0  0
   -0.3808    0.4376    0.7840 C   0  0  0  0  0  0  0  0  0  0  0  0
    1.0099    0.4926    0.6256 C   0  0  0  0  0  0  0  0  0  0  0  0
    1.6414   -0.3914   -0.2229 C   0  0  0  0  0  0  0  0  0  0  0  0
    0.8450   -1.3146   -0.8938 C   0  0  0  0  0  0  0  0  0  0  0  0
   -0.4995   -1.3337   -0.7116 N   0  0  0  0  0  0  0  0  0  0  0  0
    3.1040   -0.3709   -0.4216 C   0  0  0  0  0  0  0  0  0  0  0  0
    3.7549   -1.5325   -0.6986 C   0  0  0  0  0  0  0  0  0  0  0  0
    5.0912   -1.5037   -0.8789 N   0  0  0  0  0  0  0  0  0  0  0  0
    5.7647   -0.3433   -0.7852 C   0  0  0  0  0  0  0  0  0  0  0  0
    7.0687   -0.0503   -0.9185 N   0  0  0  0  0  0  0  0  0  0  0  0
    7.2754    1.2746   -0.7337 C   0  0  0  0  0  0  0  0  0  0  0  0
    6.0528    1.8565   -0.4709 C   0  0  0  0  0  0  0  0  0  0  0  0
    5.1209    0.8602   -0.5024 C   0  0  0  0  0  0  0  0  0  0  0  0
    3.7627    0.8414   -0.3176 C   0  0  0  0  0  0  0  0  0  0  0  0
   -5.0545    1.7143   -0.6513 H   0  0  0  0  0  0  0  0  0  0  0  0
   -6.7036    1.0735   -0.7370 H   0  0  0  0  0  0  0  0  0  0  0  0
   -6.0171    1.6889    0.8496 H   0  0  0  0  0  0  0  0  0  0  0  0
   -4.4017   -1.2875    1.7456 H   0  0  0  0  0  0  0  0  0  0  0  0
   -5.0828    0.3558    2.2014 H   0  0  0  0  0  0  0  0  0  0  0  0
   -2.6546    0.4594    2.1262 H   0  0  0  0  0  0  0  0  0  0  0  0
   -3.2976    1.3334    0.6400 H   0  0  0  0  0  0  0  0  0  0  0  0
   -2.8792   -1.8951   -1.3636 H   0  0  0  0  0  0  0  0  0  0  0  0
   -3.6836   -2.3524    0.1618 H   0  0  0  0  0  0  0  0  0  0  0  0
   -4.3479    0.0557   -1.6251 H   0  0  0  0  0  0  0  0  0  0  0  0
   -5.2901   -1.4465   -1.4827 H   0  0  0  0  0  0  0  0  0  0  0  0
   -0.8552    1.1397    1.4537 H   0  0  0  0  0  0  0  0  0  0  0  0
    1.6179    1.2148    1.1526 H   0  0  0  0  0  0  0  0  0  0  0  0
    1.3621   -1.9974   -1.5537 H   0  0  0  0  0  0  0  0  0  0  0  0
    3.1881   -2.4541   -0.7684 H   0  0  0  0  0  0  0  0  0  0  0  0
    7.8168   -0.7405   -1.1330 H   0  0  0  0  0  0  0  0  0  0  0  0
    8.1954    1.8383   -0.7703 H   0  0  0  0  0  0  0  0  0  0  0  0
    5.8570    2.8951   -0.2767 H   0  0  0  0  0  0  0  0  0  0  0  0
    3.2505    1.7662   -0.0979 H   0  0  0  0  0  0  0  0  0  0  0  0
  1  2  1  0
  2  3  1  0
  3  4  1  0
  4  5  1  0
  5  6  1  0
  6  7  1  0
  5  8  1  0
  8  9  2  0
  9 10  1  0
 10 11  2  0
 11 12  1  0
 12 13  2  0
 11 14  1  0
 14 15  2  0
 15 16  1  0
 16 17  2  0
 17 18  1  0
 18 19  1  0
 19 20  2  0
 20 21  1  0
 21 22  2  0
  7  2  1  0
 13  8  1  0
 22 14  1  0
 21 17  1  0
  1 23  1  0
  1 24  1  0
  1 25  1  0
  3 26  1  0
  3 27  1  0
  4 28  1  0
  4 29  1  0
  6 30  1  0
  6 31  1  0
  7 32  1  0
  7 33  1  0
  9 34  1  0
 10 35  1  0
 12 36  1  0
 15 37  1  0
 18 38  1  0
 19 39  1  0
 20 40  1  0
 22 41  1  0
M  END
$$$$
[H]O[C@]([H])(C([H])([H])[H])[C@]([H])(C(=O)N([H])[C@@]([H])(C(=O)N([H])[C@]([H])(C(=O)N([H])[H])C([H])([H])c1c([H])c([H])c([H])c([H])c1[H])C([H])([H])c1c([H])c([H])c([H])c([H])c1[H])N([H])C(=O)[C@]([H])(N([H])C(=O)C(C([H])([H])[H])(C([H])([H])[H])C([H])([H])[H])C([H])([H])c1c([H])n([H])c2c([H])c([H])c([H])c([H])c12
     RDKit          3D

 96 99  0  0  0  0  0  0  0  0999 V2000
    1.5699    4.1519   -0.1067 C   0  0  0  0  0  0  0  0  0  0  0  0
    0.2138    3.8056   -0.6799 C   0  0  1  0  0  0  0  0  0  0  0  0
    0.3502    3.8500   -2.0880 O   0  0  0  0  0  0  0  0  0  0  0  0
   -0.2440    2.4684   -0.2018 C   0  0  1  0  0  0  0  0  0  0  0  0
   -1.5500    2.1256   -0.7723 N   0  0  0  0  0  0  0  0  0  0  0  0
   -2.6603    1.8698    0.0735 C   0  0  0  0  0  0  0  0  0  0  0  0
   -2.5492    1.9332    1.3174 O   0  0  0  0  0  0  0  0  0  0  0  0
   -3.9564    1.5231   -0.5276 C   0  0  1  0  0  0  0  0  0  0  0  0
   -3.8068    0.3337   -1.4877 C   0  0  0  0  0  0  0  0  0  0  0  0
   -5.1038    0.0415   -2.1190 C   0  0  0  0  0  0  0  0  0  0  0  0
   -6.2531    0.7985   -2.1284 C   0  0  0  0  0  0  0  0  0  0  0  0
   -7.2087    0.1657   -2.8549 N   0  0  0  0  0  0  0  0  0  0  0  0
   -6.6857   -0.9696   -3.3001 C   0  0  0  0  0  0  0  0  0  0  0  0
   -7.2935   -1.9538   -4.0910 C   0  0  0  0  0  0  0  0  0  0  0  0
   -6.5443   -3.0491   -4.4246 C   0  0  0  0  0  0  0  0  0  0  0  0
   -5.2356   -3.1897   -4.0019 C   0  0  0  0  0  0  0  0  0  0  0  0
   -4.6553   -2.2058   -3.2221 C   0  0  0  0  0  0  0  0  0  0  0  0
   -5.3983   -1.0968   -2.8790 C   0  0  0  0  0  0  0  0  0  0  0  0
   -4.8769    1.2770    0.5432 N   0  0  0  0  0  0  0  0  0  0  0  0
   -5.2978    0.0573    1.0874 C   0  0  0  0  0  0  0  0  0  0  0  0
   -4.8719   -1.0480    0.6792 O   0  0  0  0  0  0  0  0  0  0  0  0
   -6.2862    0.0016    2.1949 C   0  0  0  0  0  0  0  0  0  0  0  0
   -6.4787   -1.4296    2.6503 C   0  0  0  0  0  0  0  0  0  0  0  0
   -7.6069    0.6267    1.7870 C   0  0  0  0  0  0  0  0  0  0  0  0
   -5.7688    0.7882    3.3909 C   0  0  0  0  0  0  0  0  0  0  0  0
    0.7184    1.4255   -0.6398 C   0  0  0  0  0  0  0  0  0  0  0  0
    0.4994    0.9370   -1.8052 O   0  0  0  0  0  0  0  0  0  0  0  0
    1.7954    0.9878    0.1526 N   0  0  0  0  0  0  0  0  0  0  0  0
    2.7798   -0.0010   -0.1262 C   0  0  2  0  0  0  0  0  0  0  0  0
    2.5097   -1.3537    0.5163 C   0  0  0  0  0  0  0  0  0  0  0  0
    1.2195   -1.9213    0.0478 C   0  0  0  0  0  0  0  0  0  0  0  0
    1.2309   -2.6385   -1.1338 C   0  0  0  0  0  0  0  0  0  0  0  0
    0.0593   -3.2136   -1.6198 C   0  0  0  0  0  0  0  0  0  0  0  0
   -1.1058   -3.0661   -0.9213 C   0  0  0  0  0  0  0  0  0  0  0  0
   -1.1084   -2.3499    0.2561 C   0  0  0  0  0  0  0  0  0  0  0  0
    0.0462   -1.7898    0.7230 C   0  0  0  0  0  0  0  0  0  0  0  0
    4.1641    0.4158    0.0786 C   0  0  0  0  0  0  0  0  0  0  0  0
    4.3964    1.6418    0.3296 O   0  0  0  0  0  0  0  0  0  0  0  0
    5.2943   -0.4121    0.0321 N   0  0  0  0  0  0  0  0  0  0  0  0
    6.6764    0.0128    0.2459 C   0  0  1  0  0  0  0  0  0  0  0  0
    6.9223   -0.0025    1.7564 C   0  0  0  0  0  0  0  0  0  0  0  0
    8.2689    0.3958    2.1047 C   0  0  0  0  0  0  0  0  0  0  0  0
    9.2347   -0.5682    2.4463 C   0  0  0  0  0  0  0  0  0  0  0  0
   10.5134   -0.2141    2.7949 C   0  0  0  0  0  0  0  0  0  0  0  0
   10.8993    1.1132    2.8205 C   0  0  0  0  0  0  0  0  0  0  0  0
    9.9771    2.0692    2.4919 C   0  0  0  0  0  0  0  0  0  0  0  0
    8.7025    1.7029    2.1461 C   0  0  0  0  0  0  0  0  0  0  0  0
    7.5926   -0.8708   -0.4492 C   0  0  0  0  0  0  0  0  0  0  0  0
    8.9842   -0.6926   -0.5873 N   0  0  0  0  0  0  0  0  0  0  0  0
    7.1184   -1.9211   -1.0064 O   0  0  0  0  0  0  0  0  0  0  0  0
    1.9008    5.1631   -0.4942 H   0  0  0  0  0  0  0  0  0  0  0  0
    1.5609    4.2402    1.0068 H   0  0  0  0  0  0  0  0  0  0  0  0
    2.3435    3.4541   -0.4768 H   0  0  0  0  0  0  0  0  0  0  0  0
   -0.5074    4.6242   -0.3929 H   0  0  0  0  0  0  0  0  0  0  0  0
   -0.5185    3.8787   -2.5277 H   0  0  0  0  0  0  0  0  0  0  0  0
   -0.3410    2.5056    0.9035 H   0  0  0  0  0  0  0  0  0  0  0  0
   -1.6394    2.0748   -1.7848 H   0  0  0  0  0  0  0  0  0  0  0  0
   -4.3827    2.3323   -1.1531 H   0  0  0  0  0  0  0  0  0  0  0  0
   -3.1180    0.7440   -2.2937 H   0  0  0  0  0  0  0  0  0  0  0  0
   -3.2746   -0.5089   -1.0609 H   0  0  0  0  0  0  0  0  0  0  0  0
   -6.3755    1.7503   -1.6364 H   0  0  0  0  0  0  0  0  0  0  0  0
   -8.1478    0.5666   -2.9892 H   0  0  0  0  0  0  0  0  0  0  0  0
   -8.3153   -1.8300   -4.4140 H   0  0  0  0  0  0  0  0  0  0  0  0
   -7.0170   -3.8237   -5.0446 H   0  0  0  0  0  0  0  0  0  0  0  0
   -4.6875   -4.0676   -4.2885 H   0  0  0  0  0  0  0  0  0  0  0  0
   -3.6333   -2.3089   -2.8856 H   0  0  0  0  0  0  0  0  0  0  0  0
   -5.3025    2.1480    0.9892 H   0  0  0  0  0  0  0  0  0  0  0  0
   -7.5526   -1.5641    2.8983 H   0  0  0  0  0  0  0  0  0  0  0  0
   -5.8204   -1.6685    3.5278 H   0  0  0  0  0  0  0  0  0  0  0  0
   -6.1810   -2.0949    1.8137 H   0  0  0  0  0  0  0  0  0  0  0  0
   -7.9888    0.2501    0.8372 H   0  0  0  0  0  0  0  0  0  0  0  0
   -8.3341    0.3452    2.5934 H   0  0  0  0  0  0  0  0  0  0  0  0
   -7.4541    1.7268    1.7773 H   0  0  0  0  0  0  0  0  0  0  0  0
   -6.4851    0.6036    4.2299 H   0  0  0  0  0  0  0  0  0  0  0  0
   -5.7913    1.8826    3.2053 H   0  0  0  0  0  0  0  0  0  0  0  0
   -4.7878    0.4128    3.7358 H   0  0  0  0  0  0  0  0  0  0  0  0
    1.8782    1.4806    1.1024 H   0  0  0  0  0  0  0  0  0  0  0  0
    2.6698   -0.2348   -1.2410 H   0  0  0  0  0  0  0  0  0  0  0  0
    2.5609   -1.3028    1.6233 H   0  0  0  0  0  0  0  0  0  0  0  0
    3.3127   -2.0374    0.1960 H   0  0  0  0  0  0  0  0  0  0  0  0
    2.1169   -2.7981   -1.7416 H   0  0  0  0  0  0  0  0  0  0  0  0
    0.0460   -3.7772   -2.5415 H   0  0  0  0  0  0  0  0  0  0  0  0
   -2.0508   -3.5124   -1.2825 H   0  0  0  0  0  0  0  0  0  0  0  0
   -2.0644   -2.2410    0.8103 H   0  0  0  0  0  0  0  0  0  0  0  0
    0.0230   -1.2317    1.6453 H   0  0  0  0  0  0  0  0  0  0  0  0
    5.1716   -1.4351   -0.1763 H   0  0  0  0  0  0  0  0  0  0  0  0
    6.8572    1.0713   -0.0333 H   0  0  0  0  0  0  0  0  0  0  0  0
    6.6710   -1.0159    2.1660 H   0  0  0  0  0  0  0  0  0  0  0  0
    6.1463    0.7078    2.1930 H   0  0  0  0  0  0  0  0  0  0  0  0
    8.9009   -1.5944    2.4138 H   0  0  0  0  0  0  0  0  0  0  0  0
   11.2550   -0.9760    3.0706 H   0  0  0  0  0  0  0  0  0  0  0  0
   11.9389    1.3287    3.1065 H   0  0  0  0  0  0  0  0  0  0  0  0
   10.2434    3.1024    2.5100 H   0  0  0  0  0  0  0  0  0  0  0  0
    7.9812    2.4718    1.8887 H   0  0  0  0  0  0  0  0  0  0  0  0
    9.3321    0.2981   -0.6565 H   0  0  0  0  0  0  0  0  0  0  0  0
    9.6693   -1.4844   -0.6218 H   0  0  0  0  0  0  0  0  0  0  0  0
  1  2  1  0
  2  3  1  0
  2  4  1  0
  4  5  1  0
  5  6  1  0
  6  7  2  0
  6  8  1  0
  8  9  1  0
  9 10  1  0
 10 11  2  0
 11 12  1  0
 12 13  1  0
 13 14  2  0
 14 15  1  0
 15 16  2  0
 16 17  1  0
 17 18  2  0
  8 19  1  0
 19 20  1  0
 20 21  2  0
 20 22  1  0
 22 23  1  0
 22 24  1  0
 22 25  1  0
  4 26  1  0
 26 27  2  0
 26 28  1  0
 28 29  1  0
 29 30  1  0
 30 31  1  0
 31 32  2  0
 32 33  1  0
 33 34  2  0
 34 35  1  0
 35 36  2  0
 29 37  1  0
 37 38  2  0
 37 39  1  0
 39 40  1  0
 40 41  1  0
 41 42  1  0
 42 43  2  0
 43 44  1  0
 44 45  2  0
 45 46  1  0
 46 47  2  0
 40 48  1  0
 48 49  1  0
 48 50  2  0
 18 10  1  0
 36 31  1  0
 47 42  1  0
 18 13  1  0
  1 51  1  0
  1 52  1  0
  1 53  1  0
  2 54  1  1
  3 55  1  0
  4 56  1  1
  5 57  1  0
  8 58  1  6
  9 59  1  0
  9 60  1  0
 11 61  1  0
 12 62  1  0
 14 63  1  0
 15 64  1  0
 16 65  1  0
 17 66  1  0
 19 67  1  0
 23 68  1  0
 23 69  1  0
 23 70  1  0
 24 71  1  0
 24 72  1  0
 24 73  1  0
 25 74  1  0
 25 75  1  0
 25 76  1  0
 28 77  1  0
 29 78  1  6
 30 79  1  0
 30 80  1  0
 32 81  1  0
 33 82  1  0
 34 83  1  0
 35 84  1  0
 36 85  1  0
 39 86  1  0
 40 87  1  6
 41 88  1  0
 41 89  1  0
 43 90  1  0
 44 91  1  0
 45 92  1  0
 46 93  1  0
 47 94  1  0
 49 95  1  0
 49 96  1  0
M  END
$$$$
[H]OC(=O)c1c([H])c([H])c(Oc2c([H])c([H])c(C(=O)N3C([H])([H])C([H])([H])N(C(=O)O[H])C([H])([H])C3([H])[H])c([H])c2[H])c(OC([H])([H])[H])c1[H]
     RDKit          3D

 49 51  0  0  0  0  0  0  0  0999 V2000
    6.5692    2.7620   -0.8415 C   0  0  0  0  0  0  0  0  0  0  0  0
    5.2578    2.3685   -0.5859 O   0  0  0  0  0  0  0  0  0  0  0  0
    4.9702    1.0963   -0.1161 C   0  0  0  0  0  0  0  0  0  0  0  0
    6.0474    0.2327    0.0880 C   0  0  0  0  0  0  0  0  0  0  0  0
    5.8401   -1.0440    0.5520 C   0  0  0  0  0  0  0  0  0  0  0  0
    4.5460   -1.4480    0.8098 C   0  0  0  0  0  0  0  0  0  0  0  0
    3.4682   -0.5805    0.6047 C   0  0  0  0  0  0  0  0  0  0  0  0
    3.6767    0.6947    0.1410 C   0  0  0  0  0  0  0  0  0  0  0  0
    2.6521    1.5595   -0.0673 O   0  0  0  0  0  0  0  0  0  0  0  0
    1.3071    1.2954    0.1537 C   0  0  0  0  0  0  0  0  0  0  0  0
    0.7104    1.5516    1.3622 C   0  0  0  0  0  0  0  0  0  0  0  0
   -0.6176    1.2909    1.5796 C   0  0  0  0  0  0  0  0  0  0  0  0
   -1.4700    0.7461    0.5972 C   0  0  0  0  0  0  0  0  0  0  0  0
   -0.8604    0.4964   -0.6003 C   0  0  0  0  0  0  0  0  0  0  0  0
    0.5065    0.7667   -0.8196 C   0  0  0  0  0  0  0  0  0  0  0  0
   -2.8553    0.4960    0.9267 C   0  0  0  0  0  0  0  0  0  0  0  0
   -3.1650    0.7704    2.1866 O   0  0  0  0  0  0  0  0  0  0  0  0
   -3.9338    0.0288    0.2035 N   0  0  0  0  0  0  0  0  0  0  0  0
   -3.9199   -0.3381   -1.1793 C   0  0  0  0  0  0  0  0  0  0  0  0
   -5.3331   -0.6396   -1.6895 C   0  0  0  0  0  0  0  0  0  0  0  0
   -6.0979   -1.4426   -0.7967 N   0  0  0  0  0  0  0  0  0  0  0  0
   -5.7395   -1.4837    0.5960 C   0  0  0  0  0  0  0  0  0  0  0  0
   -5.2107   -0.0980    0.9484 C   0  0  0  0  0  0  0  0  0  0  0  0
   -7.2085   -2.2087   -1.2311 C   0  0  0  0  0  0  0  0  0  0  0  0
   -7.9694   -2.9983   -0.4026 O   0  0  0  0  0  0  0  0  0  0  0  0
   -7.5187   -2.1655   -2.4473 O   0  0  0  0  0  0  0  0  0  0  0  0
    6.9765   -1.9333    0.7604 C   0  0  0  0  0  0  0  0  0  0  0  0
    8.2784   -1.5399    0.5057 O   0  0  0  0  0  0  0  0  0  0  0  0
    6.7899   -3.0990    1.1845 O   0  0  0  0  0  0  0  0  0  0  0  0
    7.1048    2.0298   -1.4767 H   0  0  0  0  0  0  0  0  0  0  0  0
    6.5550    3.7775   -1.3102 H   0  0  0  0  0  0  0  0  0  0  0  0
    7.1594    2.8891    0.0940 H   0  0  0  0  0  0  0  0  0  0  0  0
    7.0666    0.5258   -0.1068 H   0  0  0  0  0  0  0  0  0  0  0  0
    4.4070   -2.4604    1.1746 H   0  0  0  0  0  0  0  0  0  0  0  0
    2.4939   -0.9758    0.8306 H   0  0  0  0  0  0  0  0  0  0  0  0
    1.3293    1.9720    2.1495 H   0  0  0  0  0  0  0  0  0  0  0  0
   -1.0747    1.5036    2.5517 H   0  0  0  0  0  0  0  0  0  0  0  0
   -1.4131    0.0756   -1.4169 H   0  0  0  0  0  0  0  0  0  0  0  0
    0.9286    0.5432   -1.7990 H   0  0  0  0  0  0  0  0  0  0  0  0
   -3.5802    0.4933   -1.8223 H   0  0  0  0  0  0  0  0  0  0  0  0
   -3.2846   -1.2098   -1.3315 H   0  0  0  0  0  0  0  0  0  0  0  0
   -5.8772    0.2821   -1.9569 H   0  0  0  0  0  0  0  0  0  0  0  0
   -5.1823   -1.2417   -2.6190 H   0  0  0  0  0  0  0  0  0  0  0  0
   -6.6142   -1.6781    1.2454 H   0  0  0  0  0  0  0  0  0  0  0  0
   -4.9218   -2.1991    0.7663 H   0  0  0  0  0  0  0  0  0  0  0  0
   -5.9102    0.7048    0.7055 H   0  0  0  0  0  0  0  0  0  0  0  0
   -4.9757   -0.0970    2.0054 H   0  0  0  0  0  0  0  0  0  0  0  0
   -8.6721   -2.6047    0.2113 H   0  0  0  0  0  0  0  0  0  0  0  0
    8.7645   -1.8087   -0.3172 H   0  0  0  0  0  0  0  0  0  0  0  0
  1  2  1  0
  2  3  1  0
  3  4  2  0
  4  5  1  0
  5  6  2  0
  6  7  1  0
  7  8  2  0
  8  9  1  0
  9 10  1  0
 10 11  2  0
 11 12  1  0
 12 13  2  0
 13 14  1  0
 14 15  2  0
 13 16  1  0
 16 17  2  0
 16 18  1  0
 18 19  1  0
 19 20  1  0
 20 21  1  0
 21 22  1  0
 22 23  1  0
 21 24  1  0
 24 25  1  0
 24 26  2  0
  5 27  1  0
 27 28  1  0
 27 29  2  0
  8  3  1  0
 15 10  1  0
 23 18  1  0
  1 30  1  0
  1 31  1  0
  1 32  1  0
  4 33  1  0
  6 34  1  0
  7 35  1  0
 11 36  1  0
 12 37  1  0
 14 38  1  0
 15 39  1  0
 19 40  1  0
 19 41  1  0
 20 42  1  0
 20 43  1  0
 22 44  1  0
 22 45  1  0
 23 46  1  0
 23 47  1  0
 25 48  1  0
 28 49  1  0
M  END
$$$$
[H]c1nc2c([H])c(OC([H])([H])[H])c(OC([H])([H])[H])c([H])c2c(Oc2c([H])c([H])c(N([H])C(=O)c3c([H])n(C([H])([H])[H])c(=O)n(-c4c([H])c([H])c([H])c([H])c4[H])c3=O)c([H])c2[H])c1[H]
     RDKit          3D

 63 67  0  0  0  0  0  0  0  0999 V2000
   -7.3045    0.5883   -4.1057 C   0  0  0  0  0  0  0  0  0  0  0  0
   -7.9757    0.4128   -2.8905 O   0  0  0  0  0  0  0  0  0  0  0  0
   -7.3964    0.1586   -1.6739 C   0  0  0  0  0  0  0  0  0  0  0  0
   -6.0542    0.0399   -1.4153 C   0  0  0  0  0  0  0  0  0  0  0  0
   -5.5374   -0.2204   -0.1557 C   0  0  0  0  0  0  0  0  0  0  0  0
   -4.1814   -0.3369    0.1002 C   0  0  0  0  0  0  0  0  0  0  0  0
   -3.3299   -0.1692   -1.0018 O   0  0  0  0  0  0  0  0  0  0  0  0
   -1.9579   -0.2479   -0.7487 C   0  0  0  0  0  0  0  0  0  0  0  0
   -1.2503    0.8528   -0.3311 C   0  0  0  0  0  0  0  0  0  0  0  0
    0.0995    0.8247   -0.0735 C   0  0  0  0  0  0  0  0  0  0  0  0
    0.8029   -0.3453   -0.2307 C   0  0  0  0  0  0  0  0  0  0  0  0
    2.1924   -0.3548    0.0582 N   0  0  0  0  0  0  0  0  0  0  0  0
    2.7840    0.3470    1.1285 C   0  0  0  0  0  0  0  0  0  0  0  0
    2.1111    1.0302    1.9596 O   0  0  0  0  0  0  0  0  0  0  0  0
    4.2242    0.3355    1.3597 C   0  0  0  0  0  0  0  0  0  0  0  0
    4.6937    0.4012    2.6743 C   0  0  0  0  0  0  0  0  0  0  0  0
    6.0006    0.3630    2.9424 N   0  0  0  0  0  0  0  0  0  0  0  0
    6.4835    0.4094    4.3164 C   0  0  0  0  0  0  0  0  0  0  0  0
    6.8586    0.2613    1.9256 C   0  0  0  0  0  0  0  0  0  0  0  0
    8.1045    0.2222    2.1639 O   0  0  0  0  0  0  0  0  0  0  0  0
    6.4819    0.1948    0.6439 N   0  0  0  0  0  0  0  0  0  0  0  0
    7.3677    0.1138   -0.4537 C   0  0  0  0  0  0  0  0  0  0  0  0
    7.5288   -1.0361   -1.1882 C   0  0  0  0  0  0  0  0  0  0  0  0
    8.4130   -0.9909   -2.2556 C   0  0  0  0  0  0  0  0  0  0  0  0
    9.1192    0.1520   -2.5916 C   0  0  0  0  0  0  0  0  0  0  0  0
    8.9416    1.2821   -1.8459 C   0  0  0  0  0  0  0  0  0  0  0  0
    8.0698    1.2678   -0.7796 C   0  0  0  0  0  0  0  0  0  0  0  0
    5.1460    0.2312    0.3477 C   0  0  0  0  0  0  0  0  0  0  0  0
    4.8193    0.1695   -0.8580 O   0  0  0  0  0  0  0  0  0  0  0  0
    0.1201   -1.4558   -0.6449 C   0  0  0  0  0  0  0  0  0  0  0  0
   -1.2474   -1.4380   -0.9091 C   0  0  0  0  0  0  0  0  0  0  0  0
   -3.6878   -0.5989    1.3661 C   0  0  0  0  0  0  0  0  0  0  0  0
   -4.6019   -0.7428    2.3855 C   0  0  0  0  0  0  0  0  0  0  0  0
   -5.9275   -0.6310    2.1562 N   0  0  0  0  0  0  0  0  0  0  0  0
   -6.4012   -0.3726    0.9062 C   0  0  0  0  0  0  0  0  0  0  0  0
   -7.7584   -0.2600    0.6847 C   0  0  0  0  0  0  0  0  0  0  0  0
   -8.2597    0.0020   -0.5811 C   0  0  0  0  0  0  0  0  0  0  0  0
   -9.6171    0.1138   -0.7775 O   0  0  0  0  0  0  0  0  0  0  0  0
  -10.5327   -0.0296    0.2843 C   0  0  0  0  0  0  0  0  0  0  0  0
   -6.2151    0.4505   -3.9860 H   0  0  0  0  0  0  0  0  0  0  0  0
   -7.6131   -0.2296   -4.8102 H   0  0  0  0  0  0  0  0  0  0  0  0
   -7.4549    1.5878   -4.5739 H   0  0  0  0  0  0  0  0  0  0  0  0
   -5.3519    0.1526   -2.2239 H   0  0  0  0  0  0  0  0  0  0  0  0
   -1.7831    1.8029   -0.1971 H   0  0  0  0  0  0  0  0  0  0  0  0
    0.5921    1.7582    0.2508 H   0  0  0  0  0  0  0  0  0  0  0  0
    2.8088   -0.9324   -0.5550 H   0  0  0  0  0  0  0  0  0  0  0  0
    3.9354    0.4855    3.4731 H   0  0  0  0  0  0  0  0  0  0  0  0
    5.7417    0.9092    4.9584 H   0  0  0  0  0  0  0  0  0  0  0  0
    6.5903   -0.6476    4.7099 H   0  0  0  0  0  0  0  0  0  0  0  0
    7.4390    0.9314    4.4079 H   0  0  0  0  0  0  0  0  0  0  0  0
    6.9808   -1.9601   -0.9433 H   0  0  0  0  0  0  0  0  0  0  0  0
    8.5646   -1.8904   -2.8631 H   0  0  0  0  0  0  0  0  0  0  0  0
    9.8042    0.1560   -3.4329 H   0  0  0  0  0  0  0  0  0  0  0  0
    9.4995    2.1848   -2.1130 H   0  0  0  0  0  0  0  0  0  0  0  0
    7.9563    2.1835   -0.2133 H   0  0  0  0  0  0  0  0  0  0  0  0
    0.6770   -2.3835   -0.7699 H   0  0  0  0  0  0  0  0  0  0  0  0
   -1.7528   -2.3386   -1.2346 H   0  0  0  0  0  0  0  0  0  0  0  0
   -2.6437   -0.6860    1.5275 H   0  0  0  0  0  0  0  0  0  0  0  0
   -4.2586   -0.9537    3.4086 H   0  0  0  0  0  0  0  0  0  0  0  0
   -8.3900   -0.3903    1.5593 H   0  0  0  0  0  0  0  0  0  0  0  0
  -10.3004   -0.8601    0.9640 H   0  0  0  0  0  0  0  0  0  0  0  0
  -10.5926    0.9079    0.8769 H   0  0  0  0  0  0  0  0  0  0  0  0
  -11.5746   -0.1777   -0.1116 H   0  0  0  0  0  0  0  0  0  0  0  0
  1  2  1  0
  2  3  1  0
  3  4  2  0
  4  5  1  0
  5  6  2  0
  6  7  1  0
  7  8  1  0
  8  9  2  0
  9 10  1  0
 10 11  2  0
 11 12  1  0
 12 13  1  0
 13 14  2  0
 13 15  1  0
 15 16  2  0
 16 17  1  0
 17 18  1  0
 17 19  1  0
 19 20  2  0
 19 21  1  0
 21 22  1  0
 22 23  2  0
 23 24  1  0
 24 25  2  0
 25 26  1  0
 26 27  2  0
 21 28  1  0
 28 29  2  0
 11 30  1  0
 30 31  2  0
  6 32  1  0
 32 33  2  0
 33 34  1  0
 34 35  2  0
 35 36  1  0
 36 37  2  0
 37 38  1  0
 38 39  1  0
 37  3  1  0
 35  5  1  0
 31  8  1  0
 28 15  1  0
 27 22  1  0
  1 40  1  0
  1 41  1  0
  1 42  1  0
  4 43  1  0
  9 44  1  0
 10 45  1  0
 12 46  1  0
 16 47  1  0
 18 48  1  0
 18 49  1  0
 18 50  1  0
 23 51  1  0
 24 52  1  0
 25 53  1  0
 26 54  1  0
 27 55  1  0
 30 56  1  0
 31 57  1  0
 32 58  1  0
 33 59  1  0
 36 60  1  0
 39 61  1  0
 39 62  1  0
 39 63  1  0
M  END
$$$$
[H]O[C@]1([H])[C@@]([H])(O[H])[C@]([H])(n2c([H])nc3c(N([H])[H])nc([H])nc32)O[C@]([H])(C([H])([H])OP(=O)(O[H])O[H])[C@]1([H])O[H]
     RDKit          3D

 41 43  0  0  0  0  0  0  0  0999 V2000
   -5.3816    1.6773    2.2532 N   0  0  0  0  0  0  0  0  0  0  0  0
   -4.7091    0.5800    1.6505 C   0  0  0  0  0  0  0  0  0  0  0  0
   -5.2946   -0.6177    1.4706 N   0  0  0  0  0  0  0  0  0  0  0  0
   -4.6292   -1.6575    0.8892 C   0  0  0  0  0  0  0  0  0  0  0  0
   -3.3581   -1.5156    0.4752 N   0  0  0  0  0  0  0  0  0  0  0  0
   -2.7152   -0.3371    0.6280 C   0  0  0  0  0  0  0  0  0  0  0  0
   -1.4653    0.0435    0.2997 N   0  0  0  0  0  0  0  0  0  0  0  0
   -1.3766    1.3283    0.6881 C   0  0  0  0  0  0  0  0  0  0  0  0
   -2.5493    1.7304    1.2446 N   0  0  0  0  0  0  0  0  0  0  0  0
   -3.3956    0.7064    1.2160 C   0  0  0  0  0  0  0  0  0  0  0  0
   -0.4241   -0.7492   -0.3369 C   0  0  2  0  0  0  0  0  0  0  0  0
    0.7555   -0.6095    0.2732 O   0  0  0  0  0  0  0  0  0  0  0  0
    1.9099   -0.8822   -0.3547 C   0  0  2  0  0  0  0  0  0  0  0  0
    2.9865    0.0553    0.1534 C   0  0  0  0  0  0  0  0  0  0  0  0
    3.1751   -0.0957    1.5284 O   0  0  0  0  0  0  0  0  0  0  0  0
    4.3507    0.9146    2.1373 P   0  0  0  0  0  0  0  0  0  0  0  0
    4.6460    0.4778    3.7460 O   0  0  0  0  0  0  0  0  0  0  0  0
    5.8125    0.7980    1.3025 O   0  0  0  0  0  0  0  0  0  0  0  0
    3.9468    2.3719    2.1313 O   0  0  0  0  0  0  0  0  0  0  0  0
    1.9056   -0.8988   -1.8480 C   0  0  2  0  0  0  0  0  0  0  0  0
    2.1672    0.3520   -2.4084 O   0  0  0  0  0  0  0  0  0  0  0  0
    0.5895   -1.3709   -2.4363 C   0  0  2  0  0  0  0  0  0  0  0  0
    0.6168   -1.2637   -3.8013 O   0  0  0  0  0  0  0  0  0  0  0  0
   -0.4541   -0.4377   -1.8109 C   0  0  1  0  0  0  0  0  0  0  0  0
   -1.6854   -0.7392   -2.3428 O   0  0  0  0  0  0  0  0  0  0  0  0
   -5.7847    2.4314    1.6527 H   0  0  0  0  0  0  0  0  0  0  0  0
   -5.4969    1.7722    3.2890 H   0  0  0  0  0  0  0  0  0  0  0  0
   -5.0973   -2.6111    0.7467 H   0  0  0  0  0  0  0  0  0  0  0  0
   -0.5153    1.9595    0.5826 H   0  0  0  0  0  0  0  0  0  0  0  0
   -0.7558   -1.8264   -0.2445 H   0  0  0  0  0  0  0  0  0  0  0  0
    2.2447   -1.9144   -0.0311 H   0  0  0  0  0  0  0  0  0  0  0  0
    3.9521   -0.0907   -0.3850 H   0  0  0  0  0  0  0  0  0  0  0  0
    2.7072    1.1156   -0.0180 H   0  0  0  0  0  0  0  0  0  0  0  0
    5.3650   -0.2270    3.7259 H   0  0  0  0  0  0  0  0  0  0  0  0
    5.7009    0.8205    0.3207 H   0  0  0  0  0  0  0  0  0  0  0  0
    2.6855   -1.5881   -2.2601 H   0  0  0  0  0  0  0  0  0  0  0  0
    1.6293    0.5142   -3.2191 H   0  0  0  0  0  0  0  0  0  0  0  0
    0.3894   -2.3689   -2.0467 H   0  0  0  0  0  0  0  0  0  0  0  0
   -0.2455   -1.5952   -4.1749 H   0  0  0  0  0  0  0  0  0  0  0  0
   -0.1639    0.6236   -1.9294 H   0  0  0  0  0  0  0  0  0  0  0  0
   -2.0381    0.1057   -2.7567 H   0  0  0  0  0  0  0  0  0  0  0  0
  1  2  1  0
  2  3  2  0
  3  4  1  0
  4  5  2  0
  5  6  1  0
  6  7  1  0
  7  8  1  0
  8  9  2  0
  9 10  1  0
  7 11  1  0
 11 12  1  0
 12 13  1  0
 13 14  1  0
 14 15  1  0
 15 16  1  0
 16 17  1  0
 16 18  1  0
 16 19  2  0
 13 20  1  0
 20 21  1  0
 20 22  1  0
 22 23  1  0
 22 24  1  0
 24 25  1  0
 10  2  1  0
 24 11  1  0
 10  6  2  0
  1 26  1  0
  1 27  1  0
  4 28  1  0
  8 29  1  0
 11 30  1  6
 13 31  1  1
 14 32  1  0
 14 33  1  0
 17 34  1  0
 18 35  1  0
 20 36  1  6
 21 37  1  0
 22 38  1  6
 23 39  1  0
 24 40  1  1
 25 41  1  0
M  END
$$$$
[H]c1nc(N2C([H])([H])C([H])([H])N(C(=O)c3c([H])c([H])c(Cl)c([H])c3[H])C([H])([H])C2([H])[H])c2c([H])c(-c3c([H])c([H])c(N4C([H])([H])C([H])([H])N(C([H])([H])[H])C([H])([H])C4([H])[H])c([H])c3[H])oc2n1
     RDKit          3D

 66 71  0  0  0  0  0  0  0  0999 V2000
   -9.9473   -0.3127    0.1316 C   0  0  0  0  0  0  0  0  0  0  0  0
   -9.2167    0.5599   -0.7300 N   0  0  0  0  0  0  0  0  0  0  0  0
   -8.3498   -0.0925   -1.6650 C   0  0  0  0  0  0  0  0  0  0  0  0
   -6.8996    0.2317   -1.5003 C   0  0  0  0  0  0  0  0  0  0  0  0
   -6.5155    0.6255   -0.1717 N   0  0  0  0  0  0  0  0  0  0  0  0
   -7.4725    1.1276    0.7822 C   0  0  0  0  0  0  0  0  0  0  0  0
   -8.6405    1.6711   -0.0552 C   0  0  0  0  0  0  0  0  0  0  0  0
   -5.1528    0.5277    0.2244 C   0  0  0  0  0  0  0  0  0  0  0  0
   -4.1402    0.2234   -0.6498 C   0  0  0  0  0  0  0  0  0  0  0  0
   -2.8249    0.1261   -0.2457 C   0  0  0  0  0  0  0  0  0  0  0  0
   -2.4503    0.3301    1.0665 C   0  0  0  0  0  0  0  0  0  0  0  0
   -3.4508    0.6364    1.9591 C   0  0  0  0  0  0  0  0  0  0  0  0
   -4.7828    0.7325    1.5376 C   0  0  0  0  0  0  0  0  0  0  0  0
   -1.0756    0.2310    1.5049 C   0  0  0  0  0  0  0  0  0  0  0  0
    0.0524   -0.0710    0.7370 C   0  0  0  0  0  0  0  0  0  0  0  0
    1.1172   -0.0449    1.6011 C   0  0  0  0  0  0  0  0  0  0  0  0
    2.4487   -0.2616    1.4136 C   0  0  0  0  0  0  0  0  0  0  0  0
    3.2315   -0.1494    2.5334 N   0  0  0  0  0  0  0  0  0  0  0  0
    2.7403    0.1509    3.7319 C   0  0  0  0  0  0  0  0  0  0  0  0
    1.4265    0.3645    3.9145 N   0  0  0  0  0  0  0  0  0  0  0  0
    0.6408    0.2599    2.8334 C   0  0  0  0  0  0  0  0  0  0  0  0
   -0.6611    0.4138    2.7246 O   0  0  0  0  0  0  0  0  0  0  0  0
    3.0527   -0.5715    0.1874 N   0  0  0  0  0  0  0  0  0  0  0  0
    3.0520    0.3677   -0.8966 C   0  0  0  0  0  0  0  0  0  0  0  0
    4.1638    0.0658   -1.8869 C   0  0  0  0  0  0  0  0  0  0  0  0
    5.3508   -0.4946   -1.2079 N   0  0  0  0  0  0  0  0  0  0  0  0
    5.1941   -1.5140   -0.2239 C   0  0  0  0  0  0  0  0  0  0  0  0
    3.6920   -1.8399   -0.0096 C   0  0  0  0  0  0  0  0  0  0  0  0
    6.5830    0.0375   -1.5968 C   0  0  0  0  0  0  0  0  0  0  0  0
    6.4344    0.9689   -2.5260 O   0  0  0  0  0  0  0  0  0  0  0  0
    7.9290   -0.2133   -1.2059 C   0  0  0  0  0  0  0  0  0  0  0  0
    8.9425    0.5412   -1.8333 C   0  0  0  0  0  0  0  0  0  0  0  0
   10.2753    0.3671   -1.5202 C   0  0  0  0  0  0  0  0  0  0  0  0
   10.6727   -0.5532   -0.5793 C   0  0  0  0  0  0  0  0  0  0  0  0
   12.3593   -0.7699   -0.1869 Cl  0  0  0  0  0  0  0  0  0  0  0  0
    9.7236   -1.3030    0.0504 C   0  0  0  0  0  0  0  0  0  0  0  0
    8.3596   -1.1139   -0.2807 C   0  0  0  0  0  0  0  0  0  0  0  0
  -10.9876   -0.4151   -0.2928 H   0  0  0  0  0  0  0  0  0  0  0  0
  -10.0167    0.2000    1.1366 H   0  0  0  0  0  0  0  0  0  0  0  0
   -9.4334   -1.2743    0.2144 H   0  0  0  0  0  0  0  0  0  0  0  0
   -8.4761   -1.1888   -1.5439 H   0  0  0  0  0  0  0  0  0  0  0  0
   -8.7005    0.1496   -2.6915 H   0  0  0  0  0  0  0  0  0  0  0  0
   -6.6385    1.0439   -2.2073 H   0  0  0  0  0  0  0  0  0  0  0  0
   -6.2628   -0.6442   -1.7846 H   0  0  0  0  0  0  0  0  0  0  0  0
   -7.0854    1.9635    1.4027 H   0  0  0  0  0  0  0  0  0  0  0  0
   -7.8848    0.3174    1.4210 H   0  0  0  0  0  0  0  0  0  0  0  0
   -9.3871    2.1301    0.5961 H   0  0  0  0  0  0  0  0  0  0  0  0
   -8.2592    2.4099   -0.7903 H   0  0  0  0  0  0  0  0  0  0  0  0
   -4.3733    0.0574   -1.6790 H   0  0  0  0  0  0  0  0  0  0  0  0
   -2.0752   -0.1216   -1.0089 H   0  0  0  0  0  0  0  0  0  0  0  0
   -3.2598    0.8164    3.0193 H   0  0  0  0  0  0  0  0  0  0  0  0
   -5.5621    0.9742    2.2650 H   0  0  0  0  0  0  0  0  0  0  0  0
    0.0714   -0.2836   -0.3210 H   0  0  0  0  0  0  0  0  0  0  0  0
    3.4384    0.2174    4.5570 H   0  0  0  0  0  0  0  0  0  0  0  0
    2.0705    0.3844   -1.3763 H   0  0  0  0  0  0  0  0  0  0  0  0
    3.2085    1.4008   -0.4685 H   0  0  0  0  0  0  0  0  0  0  0  0
    4.3901    0.9832   -2.4413 H   0  0  0  0  0  0  0  0  0  0  0  0
    3.7697   -0.6811   -2.5986 H   0  0  0  0  0  0  0  0  0  0  0  0
    5.6382   -2.4865   -0.4791 H   0  0  0  0  0  0  0  0  0  0  0  0
    5.5159   -1.1540    0.7610 H   0  0  0  0  0  0  0  0  0  0  0  0
    3.6557   -2.5115    0.8534 H   0  0  0  0  0  0  0  0  0  0  0  0
    3.3917   -2.3310   -0.9710 H   0  0  0  0  0  0  0  0  0  0  0  0
    8.6766    1.2783   -2.5813 H   0  0  0  0  0  0  0  0  0  0  0  0
   11.0607    0.9408   -1.9957 H   0  0  0  0  0  0  0  0  0  0  0  0
    9.9847   -2.0445    0.8022 H   0  0  0  0  0  0  0  0  0  0  0  0
    7.6689   -1.7251    0.2409 H   0  0  0  0  0  0  0  0  0  0  0  0
  1  2  1  0
  2  3  1  0
  3  4  1  0
  4  5  1  0
  5  6  1  0
  6  7  1  0
  5  8  1  0
  8  9  2  0
  9 10  1  0
 10 11  2  0
 11 12  1  0
 12 13  2  0
 11 14  1  0
 14 15  2  0
 15 16  1  0
 16 17  2  0
 17 18  1  0
 18 19  2  0
 19 20  1  0
 20 21  2  0
 21 22  1  0
 17 23  1  0
 23 24  1  0
 24 25  1  0
 25 26  1  0
 26 27  1  0
 27 28  1  0
 26 29  1  0
 29 30  2  0
 29 31  1  0
 31 32  2  0
 32 33  1  0
 33 34  2  0
 34 35  1  0
 34 36  1  0
 36 37  2  0
  7  2  1  0
 13  8  1  0
 22 14  1  0
 28 23  1  0
 37 31  1  0
 21 16  1  0
  1 38  1  0
  1 39  1  0
  1 40  1  0
  3 41  1  0
  3 42  1  0
  4 43  1  0
  4 44  1  0
  6 45  1  0
  6 46  1  0
  7 47  1  0
  7 48  1  0
  9 49  1  0
 10 50  1  0
 12 51  1  0
 13 52  1  0
 15 53  1  0
 19 54  1  0
 24 55  1  0
 24 56  1  0
 25 57  1  0
 25 58  1  0
 27 59  1  0
 27 60  1  0
 28 61  1  0
 28 62  1  0
 32 63  1  0
 33 64  1  0
 36 65  1  0
 37 66  1  0
M  END
$$$$
[H]c1nc(N([H])c2c([H])c([H])c(N(C([H])([H])[H])C([H])([H])[H])c([H])c2OC([H])([H])[H])nc(N([H])c2c([H])c([H])c([H])c([H])c2S(=O)(=O)C([H])(C([H])([H])[H])C([H])([H])[H])c1Cl
     RDKit          3D

 58 60  0  0  0  0  0  0  0  0999 V2000
    4.4062    3.4984   -0.1452 C   0  0  0  0  0  0  0  0  0  0  0  0
    3.6111    2.3317   -0.1051 O   0  0  0  0  0  0  0  0  0  0  0  0
    4.1981    1.0874   -0.0832 C   0  0  0  0  0  0  0  0  0  0  0  0
    5.5540    0.9647   -0.0998 C   0  0  0  0  0  0  0  0  0  0  0  0
    6.2002   -0.2425   -0.0796 C   0  0  0  0  0  0  0  0  0  0  0  0
    5.4245   -1.3717   -0.0408 C   0  0  0  0  0  0  0  0  0  0  0  0
    4.0278   -1.2651   -0.0232 C   0  0  0  0  0  0  0  0  0  0  0  0
    3.3718   -0.0588   -0.0432 C   0  0  0  0  0  0  0  0  0  0  0  0
    1.9802    0.1184   -0.0273 N   0  0  0  0  0  0  0  0  0  0  0  0
    0.9512   -0.8476    0.0111 C   0  0  0  0  0  0  0  0  0  0  0  0
    1.1963   -2.1464    0.0391 N   0  0  0  0  0  0  0  0  0  0  0  0
    0.2277   -3.0576    0.0753 C   0  0  0  0  0  0  0  0  0  0  0  0
   -1.0736   -2.6137    0.0832 C   0  0  0  0  0  0  0  0  0  0  0  0
   -2.3340   -3.7936    0.1300 Cl  0  0  0  0  0  0  0  0  0  0  0  0
   -1.4051   -1.2474    0.0548 C   0  0  0  0  0  0  0  0  0  0  0  0
   -2.7553   -0.8948    0.0633 N   0  0  0  0  0  0  0  0  0  0  0  0
   -3.3324    0.3894    0.0424 C   0  0  0  0  0  0  0  0  0  0  0  0
   -2.6323    1.5679    0.0508 C   0  0  0  0  0  0  0  0  0  0  0  0
   -3.2370    2.8256    0.0415 C   0  0  0  0  0  0  0  0  0  0  0  0
   -4.6019    2.8853    0.0232 C   0  0  0  0  0  0  0  0  0  0  0  0
   -5.3336    1.7103    0.0145 C   0  0  0  0  0  0  0  0  0  0  0  0
   -4.7305    0.4794    0.0231 C   0  0  0  0  0  0  0  0  0  0  0  0
   -5.7319   -0.9461    0.0177 S   0  0  0  0  0  0  0  0  0  0  0  0
   -5.4883   -1.8307   -1.1751 O   0  0  0  0  0  0  0  0  0  0  0  0
   -5.5713   -1.7197    1.2948 O   0  0  0  0  0  0  0  0  0  0  0  0
   -7.4419   -0.4707   -0.0753 C   0  0  0  0  0  0  0  0  0  0  0  0
   -8.3033   -1.7419    0.0377 C   0  0  0  0  0  0  0  0  0  0  0  0
   -7.8098    0.1509   -1.3998 C   0  0  0  0  0  0  0  0  0  0  0  0
   -0.3515   -0.4345    0.0199 N   0  0  0  0  0  0  0  0  0  0  0  0
    7.6179   -0.3434   -0.0970 N   0  0  0  0  0  0  0  0  0  0  0  0
    8.4537    0.8280   -0.1329 C   0  0  0  0  0  0  0  0  0  0  0  0
    8.2615   -1.6612   -0.0798 C   0  0  0  0  0  0  0  0  0  0  0  0
    3.7328    4.3718   -0.1479 H   0  0  0  0  0  0  0  0  0  0  0  0
    5.0632    3.5354   -1.0399 H   0  0  0  0  0  0  0  0  0  0  0  0
    5.0107    3.5662    0.7888 H   0  0  0  0  0  0  0  0  0  0  0  0
    6.1694    1.8761   -0.1314 H   0  0  0  0  0  0  0  0  0  0  0  0
    5.9069   -2.3395   -0.0241 H   0  0  0  0  0  0  0  0  0  0  0  0
    3.4863   -2.1877    0.0072 H   0  0  0  0  0  0  0  0  0  0  0  0
    1.6538    1.1603   -0.0479 H   0  0  0  0  0  0  0  0  0  0  0  0
    0.4523   -4.1205    0.0979 H   0  0  0  0  0  0  0  0  0  0  0  0
   -3.4462   -1.7039    0.0943 H   0  0  0  0  0  0  0  0  0  0  0  0
   -1.5520    1.5914    0.0670 H   0  0  0  0  0  0  0  0  0  0  0  0
   -2.6687    3.7416    0.0481 H   0  0  0  0  0  0  0  0  0  0  0  0
   -5.1311    3.8475    0.0153 H   0  0  0  0  0  0  0  0  0  0  0  0
   -6.4315    1.8235    0.0107 H   0  0  0  0  0  0  0  0  0  0  0  0
   -7.7214    0.2137    0.7495 H   0  0  0  0  0  0  0  0  0  0  0  0
   -9.3529   -1.4016   -0.0085 H   0  0  0  0  0  0  0  0  0  0  0  0
   -8.0035   -2.3857   -0.8043 H   0  0  0  0  0  0  0  0  0  0  0  0
   -8.0407   -2.1800    1.0337 H   0  0  0  0  0  0  0  0  0  0  0  0
   -8.4048    1.0877   -1.2461 H   0  0  0  0  0  0  0  0  0  0  0  0
   -8.4264   -0.5039   -2.0345 H   0  0  0  0  0  0  0  0  0  0  0  0
   -6.8759    0.4591   -1.9124 H   0  0  0  0  0  0  0  0  0  0  0  0
    8.4382    1.2217   -1.1767 H   0  0  0  0  0  0  0  0  0  0  0  0
    9.4829    0.5333    0.1273 H   0  0  0  0  0  0  0  0  0  0  0  0
    8.0852    1.6529    0.5147 H   0  0  0  0  0  0  0  0  0  0  0  0
    9.3593   -1.5512   -0.0513 H   0  0  0  0  0  0  0  0  0  0  0  0
    7.9752   -2.1440    0.8976 H   0  0  0  0  0  0  0  0  0  0  0  0
    7.8909   -2.3143   -0.8839 H   0  0  0  0  0  0  0  0  0  0  0  0
  1  2  1  0
  2  3  1  0
  3  4  2  0
  4  5  1  0
  5  6  2  0
  6  7  1  0
  7  8  2  0
  8  9  1  0
  9 10  1  0
 10 11  2  0
 11 12  1  0
 12 13  2  0
 13 14  1  0
 13 15  1  0
 15 16  1  0
 16 17  1  0
 17 18  2  0
 18 19  1  0
 19 20  2  0
 20 21  1  0
 21 22  2  0
 22 23  1  0
 23 24  2  0
 23 25  2  0
 23 26  1  0
 26 27  1  0
 26 28  1  0
 15 29  2  0
  5 30  1  0
 30 31  1  0
 30 32  1  0
  8  3  1  0
 29 10  1  0
 22 17  1  0
  1 33  1  0
  1 34  1  0
  1 35  1  0
  4 36  1  0
  6 37  1  0
  7 38  1  0
  9 39  1  0
 12 40  1  0
 16 41  1  0
 18 42  1  0
 19 43  1  0
 20 44  1  0
 21 45  1  0
 26 46  1  0
 27 47  1  0
 27 48  1  0
 27 49  1  0
 28 50  1  0
 28 51  1  0
 28 52  1  0
 31 53  1  0
 31 54  1  0
 31 55  1  0
 32 56  1  0
 32 57  1  0
 32 58  1  0
M  END
$$$$
[H]OC(=O)N1C([H])([H])C([H])([H])N(C(=O)c2c([H])c([H])c(Oc3c([H])c([H])c(C(=O)N([H])c4c([H])c([H])c(Cl)c([H])c4[H])c([H])c3OC([H])([H])[H])c([H])c2[H])C([H])([H])C1([H])[H]
     RDKit          3D

 60 63  0  0  0  0  0  0  0  0999 V2000
   -1.0944   -2.2462    2.0978 C   0  0  0  0  0  0  0  0  0  0  0  0
   -0.8612   -0.8568    1.9572 O   0  0  0  0  0  0  0  0  0  0  0  0
   -1.8385    0.0126    1.5011 C   0  0  0  0  0  0  0  0  0  0  0  0
   -3.1012   -0.4943    1.1670 C   0  0  0  0  0  0  0  0  0  0  0  0
   -4.1243    0.3100    0.7066 C   0  0  0  0  0  0  0  0  0  0  0  0
   -3.8289    1.6455    0.5946 C   0  0  0  0  0  0  0  0  0  0  0  0
   -2.5945    2.1663    0.9174 C   0  0  0  0  0  0  0  0  0  0  0  0
   -1.5537    1.3470    1.3859 C   0  0  0  0  0  0  0  0  0  0  0  0
   -0.3296    1.9210    1.6971 O   0  0  0  0  0  0  0  0  0  0  0  0
    0.8174    1.5364    1.0362 C   0  0  0  0  0  0  0  0  0  0  0  0
    1.7577    0.7081    1.5553 C   0  0  0  0  0  0  0  0  0  0  0  0
    2.9047    0.3489    0.8348 C   0  0  0  0  0  0  0  0  0  0  0  0
    3.1665    0.7994   -0.4352 C   0  0  0  0  0  0  0  0  0  0  0  0
    2.1580    1.6630   -0.9393 C   0  0  0  0  0  0  0  0  0  0  0  0
    1.0477    2.0143   -0.2497 C   0  0  0  0  0  0  0  0  0  0  0  0
    4.2954    0.5067   -1.2635 C   0  0  0  0  0  0  0  0  0  0  0  0
    4.2586    1.0862   -2.4417 O   0  0  0  0  0  0  0  0  0  0  0  0
    5.4134   -0.2686   -1.0563 N   0  0  0  0  0  0  0  0  0  0  0  0
    5.7068   -1.0098    0.1335 C   0  0  0  0  0  0  0  0  0  0  0  0
    7.0644   -1.7300   -0.0591 C   0  0  0  0  0  0  0  0  0  0  0  0
    8.0140   -0.7119   -0.4199 N   0  0  0  0  0  0  0  0  0  0  0  0
    7.7738    0.0252   -1.6474 C   0  0  0  0  0  0  0  0  0  0  0  0
    6.3948   -0.3269   -2.1822 C   0  0  0  0  0  0  0  0  0  0  0  0
    9.1281   -0.4420    0.3842 C   0  0  0  0  0  0  0  0  0  0  0  0
   10.0607    0.5366    0.0581 O   0  0  0  0  0  0  0  0  0  0  0  0
    9.3503   -1.0774    1.4597 O   0  0  0  0  0  0  0  0  0  0  0  0
   -5.4058   -0.3052    0.3751 C   0  0  0  0  0  0  0  0  0  0  0  0
   -5.4677   -1.5454    0.2364 O   0  0  0  0  0  0  0  0  0  0  0  0
   -6.5617    0.4820    0.2126 N   0  0  0  0  0  0  0  0  0  0  0  0
   -7.8621    0.0996   -0.1084 C   0  0  0  0  0  0  0  0  0  0  0  0
   -8.9010    0.9964    0.1417 C   0  0  0  0  0  0  0  0  0  0  0  0
  -10.1897    0.6891   -0.1660 C   0  0  0  0  0  0  0  0  0  0  0  0
  -10.4828   -0.5293   -0.7359 C   0  0  0  0  0  0  0  0  0  0  0  0
  -12.1409   -0.9706   -1.1517 Cl  0  0  0  0  0  0  0  0  0  0  0  0
   -9.4766   -1.4012   -0.9799 C   0  0  0  0  0  0  0  0  0  0  0  0
   -8.1432   -1.1096   -0.6733 C   0  0  0  0  0  0  0  0  0  0  0  0
   -1.5950   -2.6728    1.1989 H   0  0  0  0  0  0  0  0  0  0  0  0
   -1.6163   -2.4847    3.0373 H   0  0  0  0  0  0  0  0  0  0  0  0
   -0.1076   -2.7887    2.1600 H   0  0  0  0  0  0  0  0  0  0  0  0
   -3.2993   -1.5557    1.2679 H   0  0  0  0  0  0  0  0  0  0  0  0
   -4.6323    2.3055    0.2232 H   0  0  0  0  0  0  0  0  0  0  0  0
   -2.4006    3.2090    0.8182 H   0  0  0  0  0  0  0  0  0  0  0  0
    1.6457    0.3149    2.5470 H   0  0  0  0  0  0  0  0  0  0  0  0
    3.6045   -0.3118    1.3115 H   0  0  0  0  0  0  0  0  0  0  0  0
    2.2889    2.0594   -1.9290 H   0  0  0  0  0  0  0  0  0  0  0  0
    0.2762    2.6866   -0.6593 H   0  0  0  0  0  0  0  0  0  0  0  0
    4.9547   -1.8012    0.3436 H   0  0  0  0  0  0  0  0  0  0  0  0
    5.8280   -0.3035    0.9931 H   0  0  0  0  0  0  0  0  0  0  0  0
    7.3398   -2.3038    0.8253 H   0  0  0  0  0  0  0  0  0  0  0  0
    6.9341   -2.3822   -0.9645 H   0  0  0  0  0  0  0  0  0  0  0  0
    7.8646    1.1131   -1.4766 H   0  0  0  0  0  0  0  0  0  0  0  0
    8.5438   -0.2621   -2.3841 H   0  0  0  0  0  0  0  0  0  0  0  0
    6.3543   -1.3175   -2.6540 H   0  0  0  0  0  0  0  0  0  0  0  0
    6.1237    0.4429   -2.9123 H   0  0  0  0  0  0  0  0  0  0  0  0
    9.7886    1.5047   -0.0170 H   0  0  0  0  0  0  0  0  0  0  0  0
   -6.4410    1.5545    0.3541 H   0  0  0  0  0  0  0  0  0  0  0  0
   -8.7224    1.9781    0.5935 H   0  0  0  0  0  0  0  0  0  0  0  0
  -11.0024    1.3857    0.0274 H   0  0  0  0  0  0  0  0  0  0  0  0
   -9.6898   -2.3631   -1.4272 H   0  0  0  0  0  0  0  0  0  0  0  0
   -7.3947   -1.8762   -0.9196 H   0  0  0  0  0  0  0  0  0  0  0  0
  1  2  1  0
  2  3  1  0
  3  4  2  0
  4  5  1  0
  5  6  2  0
  6  7  1  0
  7  8  2  0
  8  9  1  0
  9 10  1  0
 10 11  2  0
 11 12  1  0
 12 13  2  0
 13 14  1  0
 14 15  2  0
 13 16  1  0
 16 17  2  0
 16 18  1  0
 18 19  1  0
 19 20  1  0
 20 21  1  0
 21 22  1  0
 22 23  1  0
 21 24  1  0
 24 25  1  0
 24 26  2  0
  5 27  1  0
 27 28  2  0
 27 29  1  0
 29 30  1  0
 30 31  2  0
 31 32  1  0
 32 33  2  0
 33 34  1  0
 33 35  1  0
 35 36  2  0
  8  3  1  0
 15 10  1  0
 23 18  1  0
 36 30  1  0
  1 37  1  0
  1 38  1  0
  1 39  1  0
  4 40  1  0
  6 41  1  0
  7 42  1  0
 11 43  1  0
 12 44  1  0
 14 45  1  0
 15 46  1  0
 19 47  1  0
 19 48  1  0
 20 49  1  0
 20 50  1  0
 22 51  1  0
 22 52  1  0
 23 53  1  0
 23 54  1  0
 25 55  1  0
 29 56  1  0
 31 57  1  0
 32 58  1  0
 35 59  1  0
 36 60  1  0
M  END
$$$$
[H]c1c([H])c([C@]([H])(N([H])C(=O)c2c([H])c([H])c(C(F)(F)F)c([H])c2[H])C(C([H])([H])[H])(C([H])([H])[H])C([H])([H])[H])c([H])c(C(F)(F)F)c1OC([H])(C([H])([H])[H])C([H])([H])[H]
     RDKit          3D

 57 58  0  0  0  0  0  0  0  0999 V2000
   -5.9311   -0.0045    2.3518 C   0  0  0  0  0  0  0  0  0  0  0  0
   -5.4561    0.6648    1.0733 C   0  0  0  0  0  0  0  0  0  0  0  0
   -6.1323    2.0069    1.0356 C   0  0  0  0  0  0  0  0  0  0  0  0
   -4.1157    0.8627    0.9971 O   0  0  0  0  0  0  0  0  0  0  0  0
   -3.0910    0.1960    0.4398 C   0  0  0  0  0  0  0  0  0  0  0  0
   -3.1246   -1.0193   -0.1834 C   0  0  0  0  0  0  0  0  0  0  0  0
   -1.9808   -1.6339   -0.7377 C   0  0  0  0  0  0  0  0  0  0  0  0
   -0.7728   -1.0397   -0.6813 C   0  0  0  0  0  0  0  0  0  0  0  0
   -0.7254    0.2179   -0.0369 C   0  0  0  0  0  0  0  0  0  0  0  0
   -1.8306    0.8051    0.4971 C   0  0  0  0  0  0  0  0  0  0  0  0
   -1.7190    2.1366    1.1651 C   0  0  0  0  0  0  0  0  0  0  0  0
   -2.1072    1.9911    2.4641 F   0  0  0  0  0  0  0  0  0  0  0  0
   -2.4755    3.1002    0.5170 F   0  0  0  0  0  0  0  0  0  0  0  0
   -0.4032    2.5297    1.1233 F   0  0  0  0  0  0  0  0  0  0  0  0
    0.5039   -1.5762   -1.1772 C   0  0  2  0  0  0  0  0  0  0  0  0
    1.5820   -0.6438   -0.7737 N   0  0  0  0  0  0  0  0  0  0  0  0
    2.3816   -0.9071    0.3315 C   0  0  0  0  0  0  0  0  0  0  0  0
    2.1607   -2.0216    0.9349 O   0  0  0  0  0  0  0  0  0  0  0  0
    3.3898   -0.0099    0.8053 C   0  0  0  0  0  0  0  0  0  0  0  0
    3.9690   -0.2281    2.0385 C   0  0  0  0  0  0  0  0  0  0  0  0
    4.8926    0.6558    2.5676 C   0  0  0  0  0  0  0  0  0  0  0  0
    5.2684    1.7949    1.8832 C   0  0  0  0  0  0  0  0  0  0  0  0
    4.6974    2.0087    0.6609 C   0  0  0  0  0  0  0  0  0  0  0  0
    3.7732    1.1181    0.1366 C   0  0  0  0  0  0  0  0  0  0  0  0
    6.2469    2.7581    2.4758 C   0  0  0  0  0  0  0  0  0  0  0  0
    6.7385    2.2077    3.6142 F   0  0  0  0  0  0  0  0  0  0  0  0
    5.5343    3.9141    2.8512 F   0  0  0  0  0  0  0  0  0  0  0  0
    7.1635    3.0677    1.5150 F   0  0  0  0  0  0  0  0  0  0  0  0
    0.6521   -1.9763   -2.5608 C   0  0  0  0  0  0  0  0  0  0  0  0
    0.2709   -0.8313   -3.5011 C   0  0  0  0  0  0  0  0  0  0  0  0
    0.0496   -3.2554   -2.9987 C   0  0  0  0  0  0  0  0  0  0  0  0
    2.2080   -2.1864   -2.8464 C   0  0  0  0  0  0  0  0  0  0  0  0
   -5.7497    0.6465    3.2079 H   0  0  0  0  0  0  0  0  0  0  0  0
   -5.5482   -1.0168    2.4888 H   0  0  0  0  0  0  0  0  0  0  0  0
   -7.0535   -0.0748    2.2222 H   0  0  0  0  0  0  0  0  0  0  0  0
   -5.7929    0.0479    0.1967 H   0  0  0  0  0  0  0  0  0  0  0  0
   -7.1907    1.9130    0.7417 H   0  0  0  0  0  0  0  0  0  0  0  0
   -5.5985    2.7477    0.4187 H   0  0  0  0  0  0  0  0  0  0  0  0
   -6.1341    2.4517    2.0700 H   0  0  0  0  0  0  0  0  0  0  0  0
   -4.0587   -1.5562   -0.2657 H   0  0  0  0  0  0  0  0  0  0  0  0
   -2.1608   -2.6043   -1.1957 H   0  0  0  0  0  0  0  0  0  0  0  0
    0.2271    0.7549    0.0626 H   0  0  0  0  0  0  0  0  0  0  0  0
    0.7168   -2.5187   -0.5040 H   0  0  0  0  0  0  0  0  0  0  0  0
    1.6773    0.2113   -1.3689 H   0  0  0  0  0  0  0  0  0  0  0  0
    3.6679   -1.1205    2.5865 H   0  0  0  0  0  0  0  0  0  0  0  0
    5.3128    0.4194    3.5385 H   0  0  0  0  0  0  0  0  0  0  0  0
    4.9490    2.8972    0.0587 H   0  0  0  0  0  0  0  0  0  0  0  0
    3.3723    1.3601   -0.8287 H   0  0  0  0  0  0  0  0  0  0  0  0
    0.4055    0.1298   -2.9577 H   0  0  0  0  0  0  0  0  0  0  0  0
   -0.8148   -0.9472   -3.7314 H   0  0  0  0  0  0  0  0  0  0  0  0
    0.8248   -0.9057   -4.4416 H   0  0  0  0  0  0  0  0  0  0  0  0
   -0.3226   -3.1289   -4.0573 H   0  0  0  0  0  0  0  0  0  0  0  0
    0.8758   -4.0380   -3.1435 H   0  0  0  0  0  0  0  0  0  0  0  0
   -0.7109   -3.6885   -2.3506 H   0  0  0  0  0  0  0  0  0  0  0  0
    2.5563   -2.6873   -1.9478 H   0  0  0  0  0  0  0  0  0  0  0  0
    2.6631   -1.2046   -3.0365 H   0  0  0  0  0  0  0  0  0  0  0  0
    2.2694   -2.7908   -3.7444 H   0  0  0  0  0  0  0  0  0  0  0  0
  1  2  1  0
  2  3  1  0
  2  4  1  0
  4  5  1  0
  5  6  2  0
  6  7  1  0
  7  8  2  0
  8  9  1  0
  9 10  2  0
 10 11  1  0
 11 12  1  0
 11 13  1  0
 11 14  1  0
  8 15  1  0
 15 16  1  0
 16 17  1  0
 17 18  2  0
 17 19  1  0
 19 20  2  0
 20 21  1  0
 21 22  2  0
 22 23  1  0
 23 24  2  0
 22 25  1  0
 25 26  1  0
 25 27  1  0
 25 28  1  0
 15 29  1  0
 29 30  1  0
 29 31  1  0
 29 32  1  0
 10  5  1  0
 24 19  1  0
  1 33  1  0
  1 34  1  0
  1 35  1  0
  2 36  1  0
  3 37  1  0
  3 38  1  0
  3 39  1  0
  6 40  1  0
  7 41  1  0
  9 42  1  0
 15 43  1  1
 16 44  1  0
 20 45  1  0
 21 46  1  0
 23 47  1  0
 24 48  1  0
 30 49  1  0
 30 50  1  0
 30 51  1  0
 31 52  1  0
 31 53  1  0
 31 54  1  0
 32 55  1  0
 32 56  1  0
 32 57  1  0
M  END
$$$$
[H]c1c([H])c(C(F)(F)F)c([H])c([H])c1N1C([H])([H])C([H])([H])N(c2nc3c([H])c(N4C([H])([H])C([H])([H])OC([H])([H])C4([H])[H])c([H])c([H])c3n2[H])C([H])([H])[C@@]1([H])C([H])([H])[H]
     RDKit          3D

 58 62  0  0  0  0  0  0  0  0999 V2000
    2.6834    1.8804   -0.2298 C   0  0  0  0  0  0  0  0  0  0  0  0
    3.1135    0.5124   -0.7147 C   0  0  2  0  0  0  0  0  0  0  0  0
    1.9049   -0.2559   -1.2631 C   0  0  0  0  0  0  0  0  0  0  0  0
    1.0066   -0.5558   -0.1842 N   0  0  0  0  0  0  0  0  0  0  0  0
    1.4533   -0.8712    1.1297 C   0  0  0  0  0  0  0  0  0  0  0  0
    2.9145   -1.1043    1.2283 C   0  0  0  0  0  0  0  0  0  0  0  0
    3.6912   -0.2715    0.3717 N   0  0  0  0  0  0  0  0  0  0  0  0
    5.0997   -0.1915    0.5378 C   0  0  0  0  0  0  0  0  0  0  0  0
    5.9274   -1.0459   -0.2053 C   0  0  0  0  0  0  0  0  0  0  0  0
    7.2968   -1.0197   -0.1193 C   0  0  0  0  0  0  0  0  0  0  0  0
    7.9390   -0.1252    0.7290 C   0  0  0  0  0  0  0  0  0  0  0  0
    7.1393    0.7195    1.4669 C   0  0  0  0  0  0  0  0  0  0  0  0
    5.7433    0.6895    1.3746 C   0  0  0  0  0  0  0  0  0  0  0  0
    9.4279   -0.1227    0.8099 C   0  0  0  0  0  0  0  0  0  0  0  0
   10.0104    0.0380   -0.4570 F   0  0  0  0  0  0  0  0  0  0  0  0
    9.9269   -1.3310    1.2800 F   0  0  0  0  0  0  0  0  0  0  0  0
    9.8651    0.9215    1.5655 F   0  0  0  0  0  0  0  0  0  0  0  0
   -0.4051   -0.5028   -0.4642 C   0  0  0  0  0  0  0  0  0  0  0  0
   -1.4321   -0.6736    0.3910 N   0  0  0  0  0  0  0  0  0  0  0  0
   -2.6244   -0.5195   -0.2187 C   0  0  0  0  0  0  0  0  0  0  0  0
   -3.9340   -0.5745    0.2461 C   0  0  0  0  0  0  0  0  0  0  0  0
   -4.9847   -0.3465   -0.5969 C   0  0  0  0  0  0  0  0  0  0  0  0
   -4.6723   -0.0610   -1.9362 C   0  0  0  0  0  0  0  0  0  0  0  0
   -3.3700   -0.0115   -2.3771 C   0  0  0  0  0  0  0  0  0  0  0  0
   -2.3273   -0.2406   -1.5165 C   0  0  0  0  0  0  0  0  0  0  0  0
   -0.9921   -0.2356   -1.6472 N   0  0  0  0  0  0  0  0  0  0  0  0
   -6.3248   -0.3465   -0.1862 N   0  0  0  0  0  0  0  0  0  0  0  0
   -6.7392   -0.9521    1.0442 C   0  0  0  0  0  0  0  0  0  0  0  0
   -8.2426   -0.9133    1.2162 C   0  0  0  0  0  0  0  0  0  0  0  0
   -8.8708    0.2052    0.7739 O   0  0  0  0  0  0  0  0  0  0  0  0
   -8.1966    1.0871   -0.0047 C   0  0  0  0  0  0  0  0  0  0  0  0
   -7.3295    0.3097   -1.0021 C   0  0  0  0  0  0  0  0  0  0  0  0
    2.2320    1.8726    0.7829 H   0  0  0  0  0  0  0  0  0  0  0  0
    3.5683    2.5436   -0.2504 H   0  0  0  0  0  0  0  0  0  0  0  0
    1.9891    2.2935   -0.9938 H   0  0  0  0  0  0  0  0  0  0  0  0
    3.8227    0.6350   -1.5311 H   0  0  0  0  0  0  0  0  0  0  0  0
    2.2072   -1.1772   -1.7765 H   0  0  0  0  0  0  0  0  0  0  0  0
    1.4111    0.4266   -1.9635 H   0  0  0  0  0  0  0  0  0  0  0  0
    0.8608   -1.7508    1.5139 H   0  0  0  0  0  0  0  0  0  0  0  0
    1.1534   -0.0501    1.8386 H   0  0  0  0  0  0  0  0  0  0  0  0
    3.1566   -2.1962    1.1059 H   0  0  0  0  0  0  0  0  0  0  0  0
    3.1889   -0.9351    2.3257 H   0  0  0  0  0  0  0  0  0  0  0  0
    5.4087   -1.7560   -0.8776 H   0  0  0  0  0  0  0  0  0  0  0  0
    7.9263   -1.6706   -0.6938 H   0  0  0  0  0  0  0  0  0  0  0  0
    7.6149    1.4129    2.1210 H   0  0  0  0  0  0  0  0  0  0  0  0
    5.1115    1.3614    1.9551 H   0  0  0  0  0  0  0  0  0  0  0  0
   -4.1559   -0.7950    1.2736 H   0  0  0  0  0  0  0  0  0  0  0  0
   -5.4307    0.1232   -2.6856 H   0  0  0  0  0  0  0  0  0  0  0  0
   -3.1155    0.2040   -3.4148 H   0  0  0  0  0  0  0  0  0  0  0  0
   -0.4431   -0.0562   -2.5145 H   0  0  0  0  0  0  0  0  0  0  0  0
   -6.4058   -2.0221    1.0266 H   0  0  0  0  0  0  0  0  0  0  0  0
   -6.2961   -0.4678    1.9466 H   0  0  0  0  0  0  0  0  0  0  0  0
   -8.4931   -1.0037    2.3176 H   0  0  0  0  0  0  0  0  0  0  0  0
   -8.6352   -1.8669    0.7615 H   0  0  0  0  0  0  0  0  0  0  0  0
   -7.6076    1.8558    0.5431 H   0  0  0  0  0  0  0  0  0  0  0  0
   -8.9058    1.6514   -0.6475 H   0  0  0  0  0  0  0  0  0  0  0  0
   -6.9079    1.0570   -1.7036 H   0  0  0  0  0  0  0  0  0  0  0  0
   -7.9527   -0.4214   -1.5006 H   0  0  0  0  0  0  0  0  0  0  0  0
  1  2  1  0
  2  3  1  0
  3  4  1  0
  4  5  1  0
  5  6  1  0
  6  7  1  0
  7  8  1  0
  8  9  2  0
  9 10  1  0
 10 11  2  0
 11 12  1  0
 12 13  2  0
 11 14  1  0
 14 15  1  0
 14 16  1  0
 14 17  1  0
  4 18  1  0
 18 19  2  0
 19 20  1  0
 20 21  2  0
 21 22  1  0
 22 23  2  0
 23 24  1  0
 24 25  2  0
 25 26  1  0
 22 27  1  0
 27 28  1  0
 28 29  1  0
 29 30  1  0
 30 31  1  0
 31 32  1  0
  7  2  1  0
 13  8  1  0
 26 18  1  0
 32 27  1  0
 25 20  1  0
  1 33  1  0
  1 34  1  0
  1 35  1  0
  2 36  1  6
  3 37  1  0
  3 38  1  0
  5 39  1  0
  5 40  1  0
  6 41  1  0
  6 42  1  0
  9 43  1  0
 10 44  1  0
 12 45  1  0
 13 46  1  0
 21 47  1  0
 23 48  1  0
 24 49  1  0
 26 50  1  0
 28 51  1  0
 28 52  1  0
 29 53  1  0
 29 54  1  0
 31 55  1  0
 31 56  1  0
 32 57  1  0
 32 58  1  0
M  END
$$$$
[H]OC([H])([H])[C@@]1([H])O[C@@]([H])(n2c([H])nc3c(N([H])C4([H])C([H])([H])C([H])([H])C([H])([H])C4([H])[H])nc(-c4oc([H])c([H])c4[H])nc32)[C@]([H])(O[H])[C@]1([H])O[H]
     RDKit          3D

 52 56  0  0  0  0  0  0  0  0999 V2000
   -5.1904    0.6229   -1.9879 O   0  0  0  0  0  0  0  0  0  0  0  0
   -5.3855    0.6683   -0.6302 C   0  0  0  0  0  0  0  0  0  0  0  0
   -4.7163   -0.4803    0.0880 C   0  0  1  0  0  0  0  0  0  0  0  0
   -3.3196   -0.4649   -0.1376 O   0  0  0  0  0  0  0  0  0  0  0  0
   -2.9056   -1.4588    0.7151 C   0  0  2  0  0  0  0  0  0  0  0  0
   -3.5175   -1.0574    2.0308 C   0  0  2  0  0  0  0  0  0  0  0  0
   -3.9321   -2.1869    2.7300 O   0  0  0  0  0  0  0  0  0  0  0  0
   -4.7604   -0.3130    1.5853 C   0  0  2  0  0  0  0  0  0  0  0  0
   -5.9195   -0.8936    2.0862 O   0  0  0  0  0  0  0  0  0  0  0  0
   -1.4902   -1.6378    0.7623 N   0  0  0  0  0  0  0  0  0  0  0  0
   -0.8307   -2.5846    1.4157 C   0  0  0  0  0  0  0  0  0  0  0  0
    0.4961   -2.4334    1.2267 N   0  0  0  0  0  0  0  0  0  0  0  0
    0.6984   -1.3663    0.4343 C   0  0  0  0  0  0  0  0  0  0  0  0
    1.8151   -0.7451   -0.0861 C   0  0  0  0  0  0  0  0  0  0  0  0
    3.0841   -1.2583    0.2142 N   0  0  0  0  0  0  0  0  0  0  0  0
    4.3212   -0.6607   -0.2960 C   0  0  0  0  0  0  0  0  0  0  0  0
    5.5312   -1.4036    0.1758 C   0  0  0  0  0  0  0  0  0  0  0  0
    6.2832   -0.4862    1.1176 C   0  0  0  0  0  0  0  0  0  0  0  0
    5.9806    0.8700    0.5683 C   0  0  0  0  0  0  0  0  0  0  0  0
    4.4969    0.7548    0.2290 C   0  0  0  0  0  0  0  0  0  0  0  0
    1.5971    0.3313   -0.8604 N   0  0  0  0  0  0  0  0  0  0  0  0
    0.3806    0.8241   -1.1489 C   0  0  0  0  0  0  0  0  0  0  0  0
   -0.6960    0.2051   -0.6325 N   0  0  0  0  0  0  0  0  0  0  0  0
   -0.5695   -0.8794    0.1532 C   0  0  0  0  0  0  0  0  0  0  0  0
    0.2350    2.0152   -2.0114 C   0  0  0  0  0  0  0  0  0  0  0  0
   -0.9027    2.6432   -2.4033 C   0  0  0  0  0  0  0  0  0  0  0  0
   -0.5443    3.7050   -3.2011 C   0  0  0  0  0  0  0  0  0  0  0  0
    0.8305    3.6745   -3.2602 C   0  0  0  0  0  0  0  0  0  0  0  0
    1.2401    2.6636   -2.5451 O   0  0  0  0  0  0  0  0  0  0  0  0
   -4.3843    1.1765   -2.1948 H   0  0  0  0  0  0  0  0  0  0  0  0
   -5.0554    1.6034   -0.1494 H   0  0  0  0  0  0  0  0  0  0  0  0
   -6.4724    0.5748   -0.4303 H   0  0  0  0  0  0  0  0  0  0  0  0
   -5.0821   -1.4636   -0.2045 H   0  0  0  0  0  0  0  0  0  0  0  0
   -3.4449   -2.3992    0.3971 H   0  0  0  0  0  0  0  0  0  0  0  0
   -2.8442   -0.4134    2.6389 H   0  0  0  0  0  0  0  0  0  0  0  0
   -4.1367   -1.9657    3.6752 H   0  0  0  0  0  0  0  0  0  0  0  0
   -4.7351    0.7396    1.9124 H   0  0  0  0  0  0  0  0  0  0  0  0
   -6.3591   -1.4709    1.3847 H   0  0  0  0  0  0  0  0  0  0  0  0
   -1.2743   -3.3817    2.0249 H   0  0  0  0  0  0  0  0  0  0  0  0
    3.1923   -2.0958    0.8203 H   0  0  0  0  0  0  0  0  0  0  0  0
    4.2206   -0.6074   -1.3824 H   0  0  0  0  0  0  0  0  0  0  0  0
    5.2815   -2.3160    0.7566 H   0  0  0  0  0  0  0  0  0  0  0  0
    6.1567   -1.6270   -0.7109 H   0  0  0  0  0  0  0  0  0  0  0  0
    7.3764   -0.6760    1.0950 H   0  0  0  0  0  0  0  0  0  0  0  0
    5.8776   -0.6227    2.1445 H   0  0  0  0  0  0  0  0  0  0  0  0
    6.5877    1.0027   -0.3581 H   0  0  0  0  0  0  0  0  0  0  0  0
    6.1805    1.6389    1.3168 H   0  0  0  0  0  0  0  0  0  0  0  0
    3.9253    0.9486    1.1390 H   0  0  0  0  0  0  0  0  0  0  0  0
    4.3037    1.5125   -0.5596 H   0  0  0  0  0  0  0  0  0  0  0  0
   -1.9057    2.3579   -2.1353 H   0  0  0  0  0  0  0  0  0  0  0  0
   -1.1705    4.4416   -3.7028 H   0  0  0  0  0  0  0  0  0  0  0  0
    1.4525    4.3752   -3.8094 H   0  0  0  0  0  0  0  0  0  0  0  0
  1  2  1  0
  2  3  1  0
  3  4  1  0
  4  5  1  0
  5  6  1  0
  6  7  1  0
  6  8  1  0
  8  9  1  0
  5 10  1  0
 10 11  1  0
 11 12  2  0
 12 13  1  0
 13 14  2  0
 14 15  1  0
 15 16  1  0
 16 17  1  0
 17 18  1  0
 18 19  1  0
 19 20  1  0
 14 21  1  0
 21 22  2  0
 22 23  1  0
 23 24  2  0
 22 25  1  0
 25 26  2  0
 26 27  1  0
 27 28  2  0
 28 29  1  0
  8  3  1  0
 24 10  1  0
 29 25  1  0
 24 13  1  0
 20 16  1  0
  1 30  1  0
  2 31  1  0
  2 32  1  0
  3 33  1  1
  5 34  1  6
  6 35  1  1
  7 36  1  0
  8 37  1  6
  9 38  1  0
 11 39  1  0
 15 40  1  0
 16 41  1  0
 17 42  1  0
 17 43  1  0
 18 44  1  0
 18 45  1  0
 19 46  1  0
 19 47  1  0
 20 48  1  0
 20 49  1  0
 26 50  1  0
 27 51  1  0
 28 52  1  0
M  END
$$$$
[H]OC(=O)C([H])([H])[C@@]1([H])O[C@@]([H])(n2c([H])nc3c(N([H])c4c([H])c([H])c(Cl)c([H])c4Cl)nc([H])nc32)[C@]([H])(O[H])[C@]1([H])O[H]
     RDKit          3D

 44 47  0  0  0  0  0  0  0  0999 V2000
   -6.0032   -2.4284   -0.0383 O   0  0  0  0  0  0  0  0  0  0  0  0
   -5.8494   -1.5238    0.9928 C   0  0  0  0  0  0  0  0  0  0  0  0
   -6.8629   -1.0707    1.5730 O   0  0  0  0  0  0  0  0  0  0  0  0
   -4.4773   -1.1178    1.3786 C   0  0  0  0  0  0  0  0  0  0  0  0
   -4.2007    0.2301    0.7146 C   0  0  1  0  0  0  0  0  0  0  0  0
   -2.9369    0.5984    1.0755 O   0  0  0  0  0  0  0  0  0  0  0  0
   -2.2733    1.1320   -0.0131 C   0  0  2  0  0  0  0  0  0  0  0  0
   -3.1671    1.0914   -1.1984 C   0  0  2  0  0  0  0  0  0  0  0  0
   -3.8079    2.3390   -1.3588 O   0  0  0  0  0  0  0  0  0  0  0  0
   -4.2553    0.1270   -0.7796 C   0  0  2  0  0  0  0  0  0  0  0  0
   -5.5045    0.5331   -1.2573 O   0  0  0  0  0  0  0  0  0  0  0  0
   -0.9697    0.5415   -0.2108 N   0  0  0  0  0  0  0  0  0  0  0  0
   -0.6810   -0.5696   -0.9073 C   0  0  0  0  0  0  0  0  0  0  0  0
    0.6438   -0.7943   -0.8549 N   0  0  0  0  0  0  0  0  0  0  0  0
    1.2116    0.1779   -0.1203 C   0  0  0  0  0  0  0  0  0  0  0  0
    2.5645    0.4001    0.2339 C   0  0  0  0  0  0  0  0  0  0  0  0
    3.5155   -0.5231   -0.2303 N   0  0  0  0  0  0  0  0  0  0  0  0
    4.9095   -0.5204   -0.0153 C   0  0  0  0  0  0  0  0  0  0  0  0
    5.5679    0.4291    0.6924 C   0  0  0  0  0  0  0  0  0  0  0  0
    6.9607    0.3624    0.8616 C   0  0  0  0  0  0  0  0  0  0  0  0
    7.6971   -0.6534    0.3238 C   0  0  0  0  0  0  0  0  0  0  0  0
    9.4359   -0.7493    0.5265 Cl  0  0  0  0  0  0  0  0  0  0  0  0
    7.0484   -1.6112   -0.3879 C   0  0  0  0  0  0  0  0  0  0  0  0
    5.6868   -1.5416   -0.5505 C   0  0  0  0  0  0  0  0  0  0  0  0
    4.8944   -2.7997   -1.4737 Cl  0  0  0  0  0  0  0  0  0  0  0  0
    2.7895    1.4736    0.9830 N   0  0  0  0  0  0  0  0  0  0  0  0
    1.8030    2.2792    1.3691 C   0  0  0  0  0  0  0  0  0  0  0  0
    0.5135    2.0787    1.0391 N   0  0  0  0  0  0  0  0  0  0  0  0
    0.2159    1.0113    0.2829 C   0  0  0  0  0  0  0  0  0  0  0  0
   -6.9020   -2.5557   -0.4504 H   0  0  0  0  0  0  0  0  0  0  0  0
   -4.4244   -1.0251    2.4766 H   0  0  0  0  0  0  0  0  0  0  0  0
   -3.7206   -1.8525    1.0526 H   0  0  0  0  0  0  0  0  0  0  0  0
   -4.9484    0.9795    1.0470 H   0  0  0  0  0  0  0  0  0  0  0  0
   -2.0931    2.2163    0.2467 H   0  0  0  0  0  0  0  0  0  0  0  0
   -2.6745    0.7868   -2.1423 H   0  0  0  0  0  0  0  0  0  0  0  0
   -3.8635    2.8001   -0.4667 H   0  0  0  0  0  0  0  0  0  0  0  0
   -4.0764   -0.8929   -1.1595 H   0  0  0  0  0  0  0  0  0  0  0  0
   -5.7573    0.0733   -2.1006 H   0  0  0  0  0  0  0  0  0  0  0  0
   -1.4391   -1.1680   -1.4225 H   0  0  0  0  0  0  0  0  0  0  0  0
    3.1561   -1.3431   -0.8274 H   0  0  0  0  0  0  0  0  0  0  0  0
    5.1099    1.2656    1.1583 H   0  0  0  0  0  0  0  0  0  0  0  0
    7.4919    1.1232    1.4306 H   0  0  0  0  0  0  0  0  0  0  0  0
    7.6028   -2.4426   -0.8340 H   0  0  0  0  0  0  0  0  0  0  0  0
    2.0696    3.1337    1.9779 H   0  0  0  0  0  0  0  0  0  0  0  0
  1  2  1  0
  2  3  2  0
  2  4  1  0
  4  5  1  0
  5  6  1  0
  6  7  1  0
  7  8  1  0
  8  9  1  0
  8 10  1  0
 10 11  1  0
  7 12  1  0
 12 13  1  0
 13 14  2  0
 14 15  1  0
 15 16  2  0
 16 17  1  0
 17 18  1  0
 18 19  2  0
 19 20  1  0
 20 21  2  0
 21 22  1  0
 21 23  1  0
 23 24  2  0
 24 25  1  0
 16 26  1  0
 26 27  2  0
 27 28  1  0
 28 29  2  0
 10  5  1  0
 29 12  1  0
 29 15  1  0
 24 18  1  0
  1 30  1  0
  4 31  1  0
  4 32  1  0
  5 33  1  1
  7 34  1  1
  8 35  1  6
  9 36  1  0
 10 37  1  1
 11 38  1  0
 13 39  1  0
 17 40  1  0
 19 41  1  0
 20 42  1  0
 23 43  1  0
 27 44  1  0
M  END
$$$$
[H]OC(=O)[C@@]([H])(N([H])C(=O)[C@@]([H])(N([H])C(=O)[C@@]([H])(N([H])C(=O)[C@@]([H])(N([H])C(=O)[C@@]([H])(N([H])[H])C([H])([H])c1c([H])c([H])c(O[H])c([H])c1[H])C([H])([H])C([H])(C([H])([H])[H])C([H])([H])[H])C([H])([H])c1c([H])c([H])c([H])c([H])c1[H])C([H])([H])c1c([H])c([H])c([H])c([H])c1[H])C([H])([H])C([H])(C([H])([H])[H])C([H])([H])[H]
     RDKit          3D

102104  0  0  0  0  0  0  0  0999 V2000
   -4.1197    3.3194    1.9632 C   0  0  0  0  0  0  0  0  0  0  0  0
   -5.5586    2.9182    1.7044 C   0  0  0  0  0  0  0  0  0  0  0  0
   -6.4077    4.0892    2.1874 C   0  0  0  0  0  0  0  0  0  0  0  0
   -5.9716    1.6983    2.4526 C   0  0  0  0  0  0  0  0  0  0  0  0
   -5.2032    0.4564    2.1507 C   0  0  2  0  0  0  0  0  0  0  0  0
   -5.2739    0.0572    0.7594 N   0  0  0  0  0  0  0  0  0  0  0  0
   -4.2279   -0.6157    0.1115 C   0  0  0  0  0  0  0  0  0  0  0  0
   -3.1984   -0.8841    0.8415 O   0  0  0  0  0  0  0  0  0  0  0  0
   -4.1334   -1.0518   -1.2933 C   0  0  2  0  0  0  0  0  0  0  0  0
   -5.1049   -2.0187   -1.8152 C   0  0  0  0  0  0  0  0  0  0  0  0
   -6.5349   -1.7293   -1.8179 C   0  0  0  0  0  0  0  0  0  0  0  0
   -7.3446   -2.1993   -0.8157 C   0  0  0  0  0  0  0  0  0  0  0  0
   -8.7232   -1.9286   -0.8088 C   0  0  0  0  0  0  0  0  0  0  0  0
   -9.2461   -1.1870   -1.8235 C   0  0  0  0  0  0  0  0  0  0  0  0
   -8.4582   -0.7030   -2.8475 C   0  0  0  0  0  0  0  0  0  0  0  0
   -7.1014   -0.9836   -2.8293 C   0  0  0  0  0  0  0  0  0  0  0  0
   -2.7974   -1.6712   -1.4877 N   0  0  0  0  0  0  0  0  0  0  0  0
   -1.5821   -0.9757   -1.4573 C   0  0  0  0  0  0  0  0  0  0  0  0
   -1.5866    0.2615   -1.2547 O   0  0  0  0  0  0  0  0  0  0  0  0
   -0.2721   -1.6622   -1.6469 C   0  0  2  0  0  0  0  0  0  0  0  0
   -0.4867   -3.1588   -1.6284 C   0  0  0  0  0  0  0  0  0  0  0  0
    0.7455   -3.9359   -1.7903 C   0  0  0  0  0  0  0  0  0  0  0  0
    1.4648   -4.2672   -0.6425 C   0  0  0  0  0  0  0  0  0  0  0  0
    2.6276   -5.0024   -0.6603 C   0  0  0  0  0  0  0  0  0  0  0  0
    3.1032   -5.4351   -1.9055 C   0  0  0  0  0  0  0  0  0  0  0  0
    2.4285   -5.1335   -3.0688 C   0  0  0  0  0  0  0  0  0  0  0  0
    1.2600   -4.3862   -2.9732 C   0  0  0  0  0  0  0  0  0  0  0  0
    0.7131   -1.3232   -0.6592 N   0  0  0  0  0  0  0  0  0  0  0  0
    2.0560   -0.9623   -0.8421 C   0  0  0  0  0  0  0  0  0  0  0  0
    2.5820   -0.8601   -1.9335 O   0  0  0  0  0  0  0  0  0  0  0  0
    2.9121   -0.6979    0.4495 C   0  0  2  0  0  0  0  0  0  0  0  0
    2.2719    0.5116    1.0021 C   0  0  0  0  0  0  0  0  0  0  0  0
    2.7190    1.0908    2.2755 C   0  0  0  0  0  0  0  0  0  0  0  0
    4.1166    1.5695    2.4138 C   0  0  0  0  0  0  0  0  0  0  0  0
    2.3941    0.1925    3.4715 C   0  0  0  0  0  0  0  0  0  0  0  0
    4.2044   -0.6281    0.0066 N   0  0  0  0  0  0  0  0  0  0  0  0
    5.4915   -0.5667   -0.4378 C   0  0  0  0  0  0  0  0  0  0  0  0
    6.0261   -1.5652   -1.1075 O   0  0  0  0  0  0  0  0  0  0  0  0
    6.4956    0.5171   -0.2859 C   0  0  1  0  0  0  0  0  0  0  0  0
    7.7925    0.0487   -0.7621 N   0  0  0  0  0  0  0  0  0  0  0  0
    6.1069    1.7219   -1.1289 C   0  0  0  0  0  0  0  0  0  0  0  0
    7.1503    2.7793   -0.9306 C   0  0  0  0  0  0  0  0  0  0  0  0
    6.9728    3.6770    0.1020 C   0  0  0  0  0  0  0  0  0  0  0  0
    7.9136    4.6657    0.3581 C   0  0  0  0  0  0  0  0  0  0  0  0
    9.0648    4.8097   -0.3948 C   0  0  0  0  0  0  0  0  0  0  0  0
    9.9725    5.8029   -0.1146 O   0  0  0  0  0  0  0  0  0  0  0  0
    9.2417    3.9002   -1.4399 C   0  0  0  0  0  0  0  0  0  0  0  0
    8.2822    2.9097   -1.6800 C   0  0  0  0  0  0  0  0  0  0  0  0
   -5.7442   -0.6258    3.0019 C   0  0  0  0  0  0  0  0  0  0  0  0
   -5.8179   -0.4176    4.3641 O   0  0  0  0  0  0  0  0  0  0  0  0
   -6.1241   -1.6926    2.5242 O   0  0  0  0  0  0  0  0  0  0  0  0
   -3.9226    3.4273    3.0638 H   0  0  0  0  0  0  0  0  0  0  0  0
   -3.3973    2.5210    1.6197 H   0  0  0  0  0  0  0  0  0  0  0  0
   -3.8180    4.2458    1.4415 H   0  0  0  0  0  0  0  0  0  0  0  0
   -5.7132    2.8425    0.6112 H   0  0  0  0  0  0  0  0  0  0  0  0
   -6.5881    4.8075    1.3540 H   0  0  0  0  0  0  0  0  0  0  0  0
   -5.9924    4.5673    3.0780 H   0  0  0  0  0  0  0  0  0  0  0  0
   -7.3808    3.6417    2.4967 H   0  0  0  0  0  0  0  0  0  0  0  0
   -5.7859    1.9270    3.5475 H   0  0  0  0  0  0  0  0  0  0  0  0
   -7.0665    1.4719    2.4185 H   0  0  0  0  0  0  0  0  0  0  0  0
   -4.1209    0.5132    2.4259 H   0  0  0  0  0  0  0  0  0  0  0  0
   -6.1405    0.3150    0.2456 H   0  0  0  0  0  0  0  0  0  0  0  0
   -4.1879   -0.0837   -1.8755 H   0  0  0  0  0  0  0  0  0  0  0  0
   -4.8521   -2.1803   -2.9254 H   0  0  0  0  0  0  0  0  0  0  0  0
   -4.9397   -3.0634   -1.4140 H   0  0  0  0  0  0  0  0  0  0  0  0
   -6.9294   -2.8021    0.0093 H   0  0  0  0  0  0  0  0  0  0  0  0
   -9.3137   -2.3365    0.0296 H   0  0  0  0  0  0  0  0  0  0  0  0
  -10.3156   -0.9747   -1.8229 H   0  0  0  0  0  0  0  0  0  0  0  0
   -8.9134   -0.1104   -3.6477 H   0  0  0  0  0  0  0  0  0  0  0  0
   -6.5096   -0.5839   -3.6582 H   0  0  0  0  0  0  0  0  0  0  0  0
   -2.8025   -2.6909   -1.6430 H   0  0  0  0  0  0  0  0  0  0  0  0
    0.1371   -1.3314   -2.6218 H   0  0  0  0  0  0  0  0  0  0  0  0
   -0.9449   -3.4026   -0.6547 H   0  0  0  0  0  0  0  0  0  0  0  0
   -1.1830   -3.4967   -2.4253 H   0  0  0  0  0  0  0  0  0  0  0  0
    1.1196   -3.9373    0.3388 H   0  0  0  0  0  0  0  0  0  0  0  0
    3.1942   -5.2670    0.2311 H   0  0  0  0  0  0  0  0  0  0  0  0
    4.0188   -6.0165   -1.9605 H   0  0  0  0  0  0  0  0  0  0  0  0
    2.7901   -5.4616   -4.0411 H   0  0  0  0  0  0  0  0  0  0  0  0
    0.7421   -4.1550   -3.8614 H   0  0  0  0  0  0  0  0  0  0  0  0
    0.3985   -1.3416    0.3830 H   0  0  0  0  0  0  0  0  0  0  0  0
    2.5846   -1.6103    1.0378 H   0  0  0  0  0  0  0  0  0  0  0  0
    2.3346    1.3441    0.2229 H   0  0  0  0  0  0  0  0  0  0  0  0
    1.1337    0.3733    1.0690 H   0  0  0  0  0  0  0  0  0  0  0  0
    2.0703    2.0236    2.4730 H   0  0  0  0  0  0  0  0  0  0  0  0
    4.2818    2.3359    1.6022 H   0  0  0  0  0  0  0  0  0  0  0  0
    4.8807    0.7587    2.3839 H   0  0  0  0  0  0  0  0  0  0  0  0
    4.2167    2.1828    3.3594 H   0  0  0  0  0  0  0  0  0  0  0  0
    1.3751    0.3641    3.8374 H   0  0  0  0  0  0  0  0  0  0  0  0
    3.1042    0.4278    4.2789 H   0  0  0  0  0  0  0  0  0  0  0  0
    2.5696   -0.8785    3.1815 H   0  0  0  0  0  0  0  0  0  0  0  0
    4.1078   -1.9213   -0.4163 H   0  0  0  0  0  0  0  0  0  0  0  0
    6.6437    0.8731    0.7316 H   0  0  0  0  0  0  0  0  0  0  0  0
    8.0203   -0.8581   -0.2927 H   0  0  0  0  0  0  0  0  0  0  0  0
    7.8584   -0.0186   -1.7955 H   0  0  0  0  0  0  0  0  0  0  0  0
    6.0047    1.4377   -2.2084 H   0  0  0  0  0  0  0  0  0  0  0  0
    5.1489    2.1073   -0.7328 H   0  0  0  0  0  0  0  0  0  0  0  0
    6.0744    3.5992    0.7229 H   0  0  0  0  0  0  0  0  0  0  0  0
    7.7843    5.3673    1.1651 H   0  0  0  0  0  0  0  0  0  0  0  0
   10.7424    5.7021    0.5155 H   0  0  0  0  0  0  0  0  0  0  0  0
   10.1459    4.0051   -2.0249 H   0  0  0  0  0  0  0  0  0  0  0  0
    8.4477    2.2249   -2.4997 H   0  0  0  0  0  0  0  0  0  0  0  0
   -6.2026    0.3872    4.7900 H   0  0  0  0  0  0  0  0  0  0  0  0
  1  2  1  0
  2  3  1  0
  2  4  1  0
  4  5  1  0
  5  6  1  0
  6  7  1  0
  7  8  2  0
  7  9  1  0
  9 10  1  0
 10 11  1  0
 11 12  2  0
 12 13  1  0
 13 14  2  0
 14 15  1  0
 15 16  2  0
  9 17  1  0
 17 18  1  0
 18 19  2  0
 18 20  1  0
 20 21  1  0
 21 22  1  0
 22 23  2  0
 23 24  1  0
 24 25  2  0
 25 26  1  0
 26 27  2  0
 20 28  1  0
 28 29  1  0
 29 30  2  0
 29 31  1  0
 31 32  1  0
 32 33  1  0
 33 34  1  0
 33 35  1  0
 31 36  1  0
 36 37  1  0
 37 38  2  0
 37 39  1  0
 39 40  1  0
 39 41  1  0
 41 42  1  0
 42 43  2  0
 43 44  1  0
 44 45  2  0
 45 46  1  0
 45 47  1  0
 47 48  2  0
  5 49  1  0
 49 50  1  0
 49 51  2  0
 16 11  1  0
 27 22  1  0
 48 42  1  0
  1 52  1  0
  1 53  1  0
  1 54  1  0
  2 55  1  0
  3 56  1  0
  3 57  1  0
  3 58  1  0
  4 59  1  0
  4 60  1  0
  5 61  1  1
  6 62  1  0
  9 63  1  6
 10 64  1  0
 10 65  1  0
 12 66  1  0
 13 67  1  0
 14 68  1  0
 15 69  1  0
 16 70  1  0
 17 71  1  0
 20 72  1  6
 21 73  1  0
 21 74  1  0
 23 75  1  0
 24 76  1  0
 25 77  1  0
 26 78  1  0
 27 79  1  0
 28 80  1  0
 31 81  1  1
 32 82  1  0
 32 83  1  0
 33 84  1  0
 34 85  1  0
 34 86  1  0
 34 87  1  0
 35 88  1  0
 35 89  1  0
 35 90  1  0
 36 91  1  0
 39 92  1  1
 40 93  1  0
 40 94  1  0
 41 95  1  0
 41 96  1  0
 43 97  1  0
 44 98  1  0
 46 99  1  0
 47100  1  0
 48101  1  0
 50102  1  0
M  END
$$$$
[H]c1c([H])c(C(F)(F)F)c([H])c([H])c1C(=O)N([H])c1c([H])c([H])c(S(=O)(=O)N([H])c2c([H])c([H])c(N3C([H])([H])C([H])([H])OC([H])([H])C3([H])[H])c([H])c2[H])c([H])c1[H]
     RDKit          3D

 57 60  0  0  0  0  0  0  0  0999 V2000
  -10.4963    3.4743    0.9580 F   0  0  0  0  0  0  0  0  0  0  0  0
  -10.3740    2.6564   -0.1718 C   0  0  0  0  0  0  0  0  0  0  0  0
  -10.6695    3.4512   -1.2616 F   0  0  0  0  0  0  0  0  0  0  0  0
  -11.3525    1.7083   -0.0894 F   0  0  0  0  0  0  0  0  0  0  0  0
   -9.0135    2.0738   -0.2561 C   0  0  0  0  0  0  0  0  0  0  0  0
   -8.4787    1.6954   -1.4808 C   0  0  0  0  0  0  0  0  0  0  0  0
   -7.2146    1.1604   -1.5703 C   0  0  0  0  0  0  0  0  0  0  0  0
   -6.4159    0.9727   -0.4457 C   0  0  0  0  0  0  0  0  0  0  0  0
   -6.9274    1.3366    0.7614 C   0  0  0  0  0  0  0  0  0  0  0  0
   -8.2166    1.8823    0.8485 C   0  0  0  0  0  0  0  0  0  0  0  0
   -5.0627    0.3904   -0.6085 C   0  0  0  0  0  0  0  0  0  0  0  0
   -4.5170    0.5046   -1.7623 O   0  0  0  0  0  0  0  0  0  0  0  0
   -4.4564   -0.2445    0.4757 N   0  0  0  0  0  0  0  0  0  0  0  0
   -3.1783   -0.8594    0.5294 C   0  0  0  0  0  0  0  0  0  0  0  0
   -2.8499   -1.6530    1.6435 C   0  0  0  0  0  0  0  0  0  0  0  0
   -1.6201   -2.2753    1.7222 C   0  0  0  0  0  0  0  0  0  0  0  0
   -0.6693   -2.1624    0.7477 C   0  0  0  0  0  0  0  0  0  0  0  0
   -0.9796   -1.3861   -0.3441 C   0  0  0  0  0  0  0  0  0  0  0  0
   -2.2273   -0.7471   -0.4375 C   0  0  0  0  0  0  0  0  0  0  0  0
    0.8773   -2.9955    0.8728 S   0  0  0  0  0  0  0  0  0  0  0  0
    0.6571   -4.5025    0.9835 O   0  0  0  0  0  0  0  0  0  0  0  0
    1.5516   -2.5423    2.1128 O   0  0  0  0  0  0  0  0  0  0  0  0
    1.8233   -2.6667   -0.5295 N   0  0  0  0  0  0  0  0  0  0  0  0
    3.0365   -1.9051   -0.3803 C   0  0  0  0  0  0  0  0  0  0  0  0
    3.0879   -0.7941    0.4249 C   0  0  0  0  0  0  0  0  0  0  0  0
    4.2668   -0.0664    0.5771 C   0  0  0  0  0  0  0  0  0  0  0  0
    5.4270   -0.4206   -0.0705 C   0  0  0  0  0  0  0  0  0  0  0  0
    5.3509   -1.5616   -0.8929 C   0  0  0  0  0  0  0  0  0  0  0  0
    4.1864   -2.2767   -1.0378 C   0  0  0  0  0  0  0  0  0  0  0  0
    6.6640    0.2774    0.0388 N   0  0  0  0  0  0  0  0  0  0  0  0
    6.9015    1.2039    1.0902 C   0  0  0  0  0  0  0  0  0  0  0  0
    7.9506    2.2407    0.7091 C   0  0  0  0  0  0  0  0  0  0  0  0
    9.0816    1.5731    0.2309 O   0  0  0  0  0  0  0  0  0  0  0  0
    8.8275    0.9460   -0.9631 C   0  0  0  0  0  0  0  0  0  0  0  0
    7.6685    0.0113   -0.9528 C   0  0  0  0  0  0  0  0  0  0  0  0
   -9.0846    1.8425   -2.3700 H   0  0  0  0  0  0  0  0  0  0  0  0
   -6.7765    0.8527   -2.5137 H   0  0  0  0  0  0  0  0  0  0  0  0
   -6.3337    1.2137    1.6696 H   0  0  0  0  0  0  0  0  0  0  0  0
   -8.6127    2.1717    1.7987 H   0  0  0  0  0  0  0  0  0  0  0  0
   -5.0618   -0.2665    1.3742 H   0  0  0  0  0  0  0  0  0  0  0  0
   -3.6135   -1.7410    2.3979 H   0  0  0  0  0  0  0  0  0  0  0  0
   -1.4102   -2.8850    2.6099 H   0  0  0  0  0  0  0  0  0  0  0  0
   -0.2440   -1.2670   -1.1273 H   0  0  0  0  0  0  0  0  0  0  0  0
   -2.4016   -0.1429   -1.3250 H   0  0  0  0  0  0  0  0  0  0  0  0
    1.4961   -3.0212   -1.4549 H   0  0  0  0  0  0  0  0  0  0  0  0
    2.2057   -0.4766    0.9430 H   0  0  0  0  0  0  0  0  0  0  0  0
    4.2730    0.8147    1.2218 H   0  0  0  0  0  0  0  0  0  0  0  0
    6.2628   -1.8496   -1.4062 H   0  0  0  0  0  0  0  0  0  0  0  0
    4.1565   -3.1533   -1.6702 H   0  0  0  0  0  0  0  0  0  0  0  0
    7.1929    0.7153    2.0493 H   0  0  0  0  0  0  0  0  0  0  0  0
    5.9824    1.7969    1.2714 H   0  0  0  0  0  0  0  0  0  0  0  0
    8.2481    2.7895    1.6264 H   0  0  0  0  0  0  0  0  0  0  0  0
    7.5078    2.9482    0.0040 H   0  0  0  0  0  0  0  0  0  0  0  0
    8.6323    1.7197   -1.7702 H   0  0  0  0  0  0  0  0  0  0  0  0
    9.7720    0.4362   -1.3051 H   0  0  0  0  0  0  0  0  0  0  0  0
    8.0578   -1.0440   -0.8110 H   0  0  0  0  0  0  0  0  0  0  0  0
    7.1122    0.0462   -1.9460 H   0  0  0  0  0  0  0  0  0  0  0  0
  1  2  1  0
  2  3  1  0
  2  4  1  0
  2  5  1  0
  5  6  2  0
  6  7  1  0
  7  8  2  0
  8  9  1  0
  9 10  2  0
  8 11  1  0
 11 12  2  0
 11 13  1  0
 13 14  1  0
 14 15  2  0
 15 16  1  0
 16 17  2  0
 17 18  1  0
 18 19  2  0
 17 20  1  0
 20 21  2  0
 20 22  2  0
 20 23  1  0
 23 24  1  0
 24 25  2  0
 25 26  1  0
 26 27  2  0
 27 28  1  0
 28 29  2  0
 27 30  1  0
 30 31  1  0
 31 32  1  0
 32 33  1  0
 33 34  1  0
 34 35  1  0
 10  5  1  0
 19 14  1  0
 29 24  1  0
 35 30  1  0
  6 36  1  0
  7 37  1  0
  9 38  1  0
 10 39  1  0
 13 40  1  0
 15 41  1  0
 16 42  1  0
 18 43  1  0
 19 44  1  0
 23 45  1  0
 25 46  1  0
 26 47  1  0
 28 48  1  0
 29 49  1  0
 31 50  1  0
 31 51  1  0
 32 52  1  0
 32 53  1  0
 34 54  1  0
 34 55  1  0
 35 56  1  0
 35 57  1  0
M  END
$$$$
[H]c1c([H])c(N([H])S(=O)(=O)c2c([H])c([H])c(N3C([H])([H])C([H])([H])N(C([H])([H])[H])C([H])([H])C3([H])[H])c([H])c2[H])c([H])c([H])c1-c1c([H])c([H])c(S(=O)(=O)C([H])([H])[H])c([H])c1[H]
     RDKit          3D

 60 63  0  0  0  0  0  0  0  0999 V2000
    7.8780   -0.7488   -2.4989 C   0  0  0  0  0  0  0  0  0  0  0  0
    7.0744    0.3921   -2.1635 N   0  0  0  0  0  0  0  0  0  0  0  0
    7.3408    0.7561   -0.7998 C   0  0  0  0  0  0  0  0  0  0  0  0
    6.2434    0.3582    0.1466 C   0  0  0  0  0  0  0  0  0  0  0  0
    4.9966    0.9730   -0.3157 N   0  0  0  0  0  0  0  0  0  0  0  0
    4.9658    1.3754   -1.7036 C   0  0  0  0  0  0  0  0  0  0  0  0
    5.6824    0.2405   -2.4594 C   0  0  0  0  0  0  0  0  0  0  0  0
    3.9581    1.1114    0.6068 C   0  0  0  0  0  0  0  0  0  0  0  0
    2.9236    1.9783    0.4288 C   0  0  0  0  0  0  0  0  0  0  0  0
    1.9012    2.0702    1.3982 C   0  0  0  0  0  0  0  0  0  0  0  0
    1.9131    1.3040    2.5213 C   0  0  0  0  0  0  0  0  0  0  0  0
    2.9861    0.4122    2.6920 C   0  0  0  0  0  0  0  0  0  0  0  0
    3.9933    0.3116    1.7616 C   0  0  0  0  0  0  0  0  0  0  0  0
    0.7365    1.3770    3.7742 S   0  0  0  0  0  0  0  0  0  0  0  0
    1.4264    1.3608    5.1262 O   0  0  0  0  0  0  0  0  0  0  0  0
    0.0668    2.7552    3.7367 O   0  0  0  0  0  0  0  0  0  0  0  0
   -0.4599    0.1868    3.6898 N   0  0  0  0  0  0  0  0  0  0  0  0
   -1.4386   -0.0806    2.7184 C   0  0  0  0  0  0  0  0  0  0  0  0
   -2.7391   -0.3783    3.1980 C   0  0  0  0  0  0  0  0  0  0  0  0
   -3.7776   -0.6419    2.3542 C   0  0  0  0  0  0  0  0  0  0  0  0
   -3.6178   -0.6329    0.9687 C   0  0  0  0  0  0  0  0  0  0  0  0
   -2.3606   -0.3500    0.4906 C   0  0  0  0  0  0  0  0  0  0  0  0
   -1.3007   -0.0789    1.3557 C   0  0  0  0  0  0  0  0  0  0  0  0
   -4.7817   -0.9104    0.1429 C   0  0  0  0  0  0  0  0  0  0  0  0
   -4.7275   -1.5099   -1.0904 C   0  0  0  0  0  0  0  0  0  0  0  0
   -5.8453   -1.7844   -1.8588 C   0  0  0  0  0  0  0  0  0  0  0  0
   -7.1108   -1.4437   -1.3785 C   0  0  0  0  0  0  0  0  0  0  0  0
   -7.1744   -0.8458   -0.1470 C   0  0  0  0  0  0  0  0  0  0  0  0
   -6.0619   -0.5738    0.6151 C   0  0  0  0  0  0  0  0  0  0  0  0
   -8.5476   -1.7606   -2.2896 S   0  0  0  0  0  0  0  0  0  0  0  0
   -9.0388   -0.3875   -3.2781 C   0  0  0  0  0  0  0  0  0  0  0  0
   -9.6764   -2.2357   -1.4167 O   0  0  0  0  0  0  0  0  0  0  0  0
   -8.2364   -2.9014   -3.2418 O   0  0  0  0  0  0  0  0  0  0  0  0
    7.8004   -1.5686   -1.7306 H   0  0  0  0  0  0  0  0  0  0  0  0
    8.9678   -0.4539   -2.5216 H   0  0  0  0  0  0  0  0  0  0  0  0
    7.6484   -1.1581   -3.5066 H   0  0  0  0  0  0  0  0  0  0  0  0
    8.2969    0.3048   -0.4295 H   0  0  0  0  0  0  0  0  0  0  0  0
    7.4473    1.8633   -0.7471 H   0  0  0  0  0  0  0  0  0  0  0  0
    6.0896   -0.7169    0.2521 H   0  0  0  0  0  0  0  0  0  0  0  0
    6.4714    0.7600    1.1556 H   0  0  0  0  0  0  0  0  0  0  0  0
    3.9497    1.4487   -2.0900 H   0  0  0  0  0  0  0  0  0  0  0  0
    5.5446    2.3080   -1.8964 H   0  0  0  0  0  0  0  0  0  0  0  0
    5.5423    0.3681   -3.5501 H   0  0  0  0  0  0  0  0  0  0  0  0
    5.2959   -0.7061   -2.0838 H   0  0  0  0  0  0  0  0  0  0  0  0
    2.8743    2.6081   -0.4521 H   0  0  0  0  0  0  0  0  0  0  0  0
    1.0775    2.7628    1.2406 H   0  0  0  0  0  0  0  0  0  0  0  0
    2.9921   -0.1858    3.5739 H   0  0  0  0  0  0  0  0  0  0  0  0
    4.8217   -0.3766    1.8838 H   0  0  0  0  0  0  0  0  0  0  0  0
   -0.4818   -0.5095    4.5297 H   0  0  0  0  0  0  0  0  0  0  0  0
   -2.8797   -0.3863    4.2612 H   0  0  0  0  0  0  0  0  0  0  0  0
   -4.7877   -0.8821    2.7316 H   0  0  0  0  0  0  0  0  0  0  0  0
   -2.2020   -0.3419   -0.5854 H   0  0  0  0  0  0  0  0  0  0  0  0
   -0.3384    0.1293    0.9492 H   0  0  0  0  0  0  0  0  0  0  0  0
   -3.7341   -1.7703   -1.4655 H   0  0  0  0  0  0  0  0  0  0  0  0
   -5.7751   -2.2572   -2.8280 H   0  0  0  0  0  0  0  0  0  0  0  0
   -8.1367   -0.5707    0.2646 H   0  0  0  0  0  0  0  0  0  0  0  0
   -6.1935   -0.0886    1.5781 H   0  0  0  0  0  0  0  0  0  0  0  0
  -10.1380   -0.4037   -3.4223 H   0  0  0  0  0  0  0  0  0  0  0  0
   -8.5743   -0.4663   -4.3033 H   0  0  0  0  0  0  0  0  0  0  0  0
   -8.7700    0.5911   -2.8844 H   0  0  0  0  0  0  0  0  0  0  0  0
  1  2  1  0
  2  3  1  0
  3  4  1  0
  4  5  1  0
  5  6  1  0
  6  7  1  0
  5  8  1  0
  8  9  2  0
  9 10  1  0
 10 11  2  0
 11 12  1  0
 12 13  2  0
 11 14  1  0
 14 15  2  0
 14 16  2  0
 14 17  1  0
 17 18  1  0
 18 19  2  0
 19 20  1  0
 20 21  2  0
 21 22  1  0
 22 23  2  0
 21 24  1  0
 24 25  2  0
 25 26  1  0
 26 27  2  0
 27 28  1  0
 28 29  2  0
 27 30  1  0
 30 31  1  0
 30 32  2  0
 30 33  2  0
  7  2  1  0
 13  8  1  0
 23 18  1  0
 29 24  1  0
  1 34  1  0
  1 35  1  0
  1 36  1  0
  3 37  1  0
  3 38  1  0
  4 39  1  0
  4 40  1  0
  6 41  1  0
  6 42  1  0
  7 43  1  0
  7 44  1  0
  9 45  1  0
 10 46  1  0
 12 47  1  0
 13 48  1  0
 17 49  1  0
 19 50  1  0
 20 51  1  0
 22 52  1  0
 23 53  1  0
 25 54  1  0
 26 55  1  0
 28 56  1  0
 29 57  1  0
 31 58  1  0
 31 59  1  0
 31 60  1  0
M  END
$$$$
[H]Oc1c([H])c([H])c(C([H])([H])[C@@]([H])(C(=O)N([H])[C@]([H])(C(=O)N([H])[H])C([H])([H])c2c([H])c([H])c([H])c([H])c2[H])N([H])C(=O)[C@@]([H])(N([H])C(=O)OC([H])([H])c2c([H])c([H])c([H])c([H])c2[H])C([H])([H])C([H])(C([H])([H])[H])C([H])([H])[H])c([H])c1[H]
     RDKit          3D

 80 82  0  0  0  0  0  0  0  0999 V2000
   -2.2926   -2.3763   -1.7851 C   0  0  0  0  0  0  0  0  0  0  0  0
   -3.3159   -2.6348   -0.7239 C   0  0  0  0  0  0  0  0  0  0  0  0
   -3.7792   -4.0835   -0.9614 C   0  0  0  0  0  0  0  0  0  0  0  0
   -2.8646   -2.5442    0.6874 C   0  0  0  0  0  0  0  0  0  0  0  0
   -2.3072   -1.2607    1.1481 C   0  0  2  0  0  0  0  0  0  0  0  0
   -3.1891   -0.1341    0.9727 N   0  0  0  0  0  0  0  0  0  0  0  0
   -2.9573    1.0703    0.2932 C   0  0  0  0  0  0  0  0  0  0  0  0
   -1.9183    1.3953   -0.3164 O   0  0  0  0  0  0  0  0  0  0  0  0
   -3.9711    2.0382    0.2688 O   0  0  0  0  0  0  0  0  0  0  0  0
   -3.7562    3.2681   -0.4141 C   0  0  0  0  0  0  0  0  0  0  0  0
   -4.9742    4.0916   -0.3017 C   0  0  0  0  0  0  0  0  0  0  0  0
   -5.7199    4.3475   -1.4634 C   0  0  0  0  0  0  0  0  0  0  0  0
   -6.8466    5.1194   -1.3892 C   0  0  0  0  0  0  0  0  0  0  0  0
   -7.2931    5.6635   -0.2171 C   0  0  0  0  0  0  0  0  0  0  0  0
   -6.5680    5.4191    0.9407 C   0  0  0  0  0  0  0  0  0  0  0  0
   -5.4309    4.6428    0.8710 C   0  0  0  0  0  0  0  0  0  0  0  0
   -0.8701   -1.0169    1.0650 C   0  0  0  0  0  0  0  0  0  0  0  0
   -0.4849    0.1404    1.4743 O   0  0  0  0  0  0  0  0  0  0  0  0
    0.1130   -1.9257    0.5849 N   0  0  0  0  0  0  0  0  0  0  0  0
    1.5224   -1.5254    0.5656 C   0  0  1  0  0  0  0  0  0  0  0  0
    2.4588   -2.6437    0.8689 C   0  0  0  0  0  0  0  0  0  0  0  0
    2.1864   -3.1995    2.2063 C   0  0  0  0  0  0  0  0  0  0  0  0
    1.2789   -4.2195    2.3886 C   0  0  0  0  0  0  0  0  0  0  0  0
    1.0375   -4.7399    3.6601 C   0  0  0  0  0  0  0  0  0  0  0  0
    1.7044   -4.2389    4.7523 C   0  0  0  0  0  0  0  0  0  0  0  0
    1.4893   -4.7314    6.0320 O   0  0  0  0  0  0  0  0  0  0  0  0
    2.6159   -3.2151    4.5701 C   0  0  0  0  0  0  0  0  0  0  0  0
    2.8474   -2.7054    3.2974 C   0  0  0  0  0  0  0  0  0  0  0  0
    1.8193   -0.8257   -0.7282 C   0  0  0  0  0  0  0  0  0  0  0  0
    0.9042   -0.7321   -1.5890 O   0  0  0  0  0  0  0  0  0  0  0  0
    3.0737   -0.2549   -1.0442 N   0  0  0  0  0  0  0  0  0  0  0  0
    3.2391    0.4142   -2.3434 C   0  0  1  0  0  0  0  0  0  0  0  0
    3.1796    1.9042   -1.9993 C   0  0  0  0  0  0  0  0  0  0  0  0
    4.2121    2.3284   -1.0599 C   0  0  0  0  0  0  0  0  0  0  0  0
    4.0236    2.2689    0.2936 C   0  0  0  0  0  0  0  0  0  0  0  0
    5.0124    2.6828    1.1913 C   0  0  0  0  0  0  0  0  0  0  0  0
    6.2188    3.1683    0.7470 C   0  0  0  0  0  0  0  0  0  0  0  0
    6.4098    3.2285   -0.6437 C   0  0  0  0  0  0  0  0  0  0  0  0
    5.4201    2.8149   -1.4986 C   0  0  0  0  0  0  0  0  0  0  0  0
    4.4902    0.0276   -3.0063 C   0  0  0  0  0  0  0  0  0  0  0  0
    4.8206    0.5146   -4.2934 N   0  0  0  0  0  0  0  0  0  0  0  0
    5.2910   -0.7498   -2.4321 O   0  0  0  0  0  0  0  0  0  0  0  0
   -2.7211   -2.5567   -2.8163 H   0  0  0  0  0  0  0  0  0  0  0  0
   -1.4468   -3.1033   -1.7211 H   0  0  0  0  0  0  0  0  0  0  0  0
   -1.9572   -1.3234   -1.8129 H   0  0  0  0  0  0  0  0  0  0  0  0
   -4.1727   -1.9586   -0.9539 H   0  0  0  0  0  0  0  0  0  0  0  0
   -4.5512   -4.3171   -0.2053 H   0  0  0  0  0  0  0  0  0  0  0  0
   -4.2360   -4.1442   -1.9539 H   0  0  0  0  0  0  0  0  0  0  0  0
   -2.8999   -4.7500   -0.8493 H   0  0  0  0  0  0  0  0  0  0  0  0
   -3.6422   -2.8920    1.4090 H   0  0  0  0  0  0  0  0  0  0  0  0
   -2.0491   -3.3228    0.8055 H   0  0  0  0  0  0  0  0  0  0  0  0
   -2.3761   -1.3660    2.3483 H   0  0  0  0  0  0  0  0  0  0  0  0
   -4.1573   -0.2367    1.4278 H   0  0  0  0  0  0  0  0  0  0  0  0
   -2.8524    3.7896   -0.0313 H   0  0  0  0  0  0  0  0  0  0  0  0
   -3.6013    3.0147   -1.4824 H   0  0  0  0  0  0  0  0  0  0  0  0
   -5.3778    3.9221   -2.3898 H   0  0  0  0  0  0  0  0  0  0  0  0
   -7.4320    5.3243   -2.3068 H   0  0  0  0  0  0  0  0  0  0  0  0
   -8.1743    6.2756   -0.1289 H   0  0  0  0  0  0  0  0  0  0  0  0
   -6.8737    5.8223    1.8950 H   0  0  0  0  0  0  0  0  0  0  0  0
   -4.8699    4.4529    1.7704 H   0  0  0  0  0  0  0  0  0  0  0  0
   -0.1673   -2.8641    0.2765 H   0  0  0  0  0  0  0  0  0  0  0  0
    1.6350   -0.7275    1.3225 H   0  0  0  0  0  0  0  0  0  0  0  0
    3.5095   -2.2988    0.8244 H   0  0  0  0  0  0  0  0  0  0  0  0
    2.3980   -3.4755    0.1299 H   0  0  0  0  0  0  0  0  0  0  0  0
    0.7134   -4.6645    1.5749 H   0  0  0  0  0  0  0  0  0  0  0  0
    0.3106   -5.5505    3.7713 H   0  0  0  0  0  0  0  0  0  0  0  0
    2.0597   -5.4869    6.3434 H   0  0  0  0  0  0  0  0  0  0  0  0
    3.1527   -2.8038    5.4130 H   0  0  0  0  0  0  0  0  0  0  0  0
    3.5638   -1.9116    3.2034 H   0  0  0  0  0  0  0  0  0  0  0  0
    3.8733   -0.2987   -0.3836 H   0  0  0  0  0  0  0  0  0  0  0  0
    2.3376    0.2384   -2.9646 H   0  0  0  0  0  0  0  0  0  0  0  0
    3.1821    2.4503   -2.9749 H   0  0  0  0  0  0  0  0  0  0  0  0
    2.1733    2.0584   -1.5493 H   0  0  0  0  0  0  0  0  0  0  0  0
    3.0993    1.8959    0.7539 H   0  0  0  0  0  0  0  0  0  0  0  0
    4.8382    2.6249    2.2506 H   0  0  0  0  0  0  0  0  0  0  0  0
    7.0195    3.5009    1.4202 H   0  0  0  0  0  0  0  0  0  0  0  0
    7.3734    3.6158   -0.9618 H   0  0  0  0  0  0  0  0  0  0  0  0
    5.6033    2.8756   -2.5795 H   0  0  0  0  0  0  0  0  0  0  0  0
    4.1665    1.1363   -4.8228 H   0  0  0  0  0  0  0  0  0  0  0  0
    5.7199    0.2637   -4.7489 H   0  0  0  0  0  0  0  0  0  0  0  0
  1  2  1  0
  2  3  1  0
  2  4  1  0
  4  5  1  0
  5  6  1  0
  6  7  1  0
  7  8  2  0
  7  9  1  0
  9 10  1  0
 10 11  1  0
 11 12  2  0
 12 13  1  0
 13 14  2  0
 14 15  1  0
 15 16  2  0
  5 17  1  0
 17 18  2  0
 17 19  1  0
 19 20  1  0
 20 21  1  0
 21 22  1  0
 22 23  2  0
 23 24  1  0
 24 25  2  0
 25 26  1  0
 25 27  1  0
 27 28  2  0
 20 29  1  0
 29 30  2  0
 29 31  1  0
 31 32  1  0
 32 33  1  0
 33 34  1  0
 34 35  2  0
 35 36  1  0
 36 37  2  0
 37 38  1  0
 38 39  2  0
 32 40  1  0
 40 41  1  0
 40 42  2  0
 16 11  1  0
 28 22  1  0
 39 34  1  0
  1 43  1  0
  1 44  1  0
  1 45  1  0
  2 46  1  0
  3 47  1  0
  3 48  1  0
  3 49  1  0
  4 50  1  0
  4 51  1  0
  5 52  1  1
  6 53  1  0
 10 54  1  0
 10 55  1  0
 12 56  1  0
 13 57  1  0
 14 58  1  0
 15 59  1  0
 16 60  1  0
 19 61  1  0
 20 62  1  1
 21 63  1  0
 21 64  1  0
 23 65  1  0
 24 66  1  0
 26 67  1  0
 27 68  1  0
 28 69  1  0
 31 70  1  0
 32 71  1  6
 33 72  1  0
 33 73  1  0
 35 74  1  0
 36 75  1  0
 37 76  1  0
 38 77  1  0
 39 78  1  0
 41 79  1  0
 41 80  1  0
M  END
$$$$
[H]c1nc(N([H])[H])c2c(-c3sc4c(OC([H])([H])[H])c([H])c(C([H])([H])[H])c([H])c4c3[H])c(C([H])([H])N3C([H])([H])C([H])([H])N(C([H])([H])[H])C([H])([H])C3([H])[H])c([H])n2n1
     RDKit          3D

 56 60  0  0  0  0  0  0  0  0999 V2000
   -6.9487   -0.9617   -0.8879 C   0  0  0  0  0  0  0  0  0  0  0  0
   -5.6559   -0.4797   -0.7104 O   0  0  0  0  0  0  0  0  0  0  0  0
   -4.6483   -1.1475   -0.0404 C   0  0  0  0  0  0  0  0  0  0  0  0
   -4.7850   -2.3837    0.5448 C   0  0  0  0  0  0  0  0  0  0  0  0
   -3.6674   -2.8939    1.1706 C   0  0  0  0  0  0  0  0  0  0  0  0
   -3.7829   -4.2371    1.8192 C   0  0  0  0  0  0  0  0  0  0  0  0
   -2.4885   -2.2332    1.2197 C   0  0  0  0  0  0  0  0  0  0  0  0
   -2.3135   -0.9635    0.6300 C   0  0  0  0  0  0  0  0  0  0  0  0
   -1.1982   -0.2084    0.6109 C   0  0  0  0  0  0  0  0  0  0  0  0
   -1.2592    1.0159   -0.0348 C   0  0  0  0  0  0  0  0  0  0  0  0
   -2.8766    1.0303   -0.5703 S   0  0  0  0  0  0  0  0  0  0  0  0
   -3.4206   -0.4662    0.0143 C   0  0  0  0  0  0  0  0  0  0  0  0
   -0.1704    2.0127   -0.1041 C   0  0  0  0  0  0  0  0  0  0  0  0
    1.1760    1.7423   -0.3691 C   0  0  0  0  0  0  0  0  0  0  0  0
    1.6831    0.4294   -0.7671 C   0  0  0  0  0  0  0  0  0  0  0  0
    3.1427    0.3996   -0.9751 N   0  0  0  0  0  0  0  0  0  0  0  0
    3.7690    0.5786    0.2924 C   0  0  0  0  0  0  0  0  0  0  0  0
    4.4812   -0.6733    0.7714 C   0  0  0  0  0  0  0  0  0  0  0  0
    5.4315   -1.1645   -0.1693 N   0  0  0  0  0  0  0  0  0  0  0  0
    5.9084   -2.4539    0.2954 C   0  0  0  0  0  0  0  0  0  0  0  0
    4.8275   -1.3339   -1.4478 C   0  0  0  0  0  0  0  0  0  0  0  0
    3.4140   -0.8958   -1.5702 C   0  0  0  0  0  0  0  0  0  0  0  0
    1.8983    2.8889   -0.2760 C   0  0  0  0  0  0  0  0  0  0  0  0
    1.0335    3.8712    0.0413 N   0  0  0  0  0  0  0  0  0  0  0  0
    1.3280    5.1303    0.2336 N   0  0  0  0  0  0  0  0  0  0  0  0
    0.3408    5.9783    0.5605 C   0  0  0  0  0  0  0  0  0  0  0  0
   -0.9222    5.5555    0.6905 N   0  0  0  0  0  0  0  0  0  0  0  0
   -1.2218    4.2530    0.4906 C   0  0  0  0  0  0  0  0  0  0  0  0
   -2.5617    3.8187    0.6787 N   0  0  0  0  0  0  0  0  0  0  0  0
   -0.2343    3.3657    0.1533 C   0  0  0  0  0  0  0  0  0  0  0  0
   -7.1008   -1.5103   -1.8351 H   0  0  0  0  0  0  0  0  0  0  0  0
   -7.2461   -1.5822   -0.0082 H   0  0  0  0  0  0  0  0  0  0  0  0
   -7.6464   -0.0816   -0.8972 H   0  0  0  0  0  0  0  0  0  0  0  0
   -5.7265   -2.8730    0.4860 H   0  0  0  0  0  0  0  0  0  0  0  0
   -4.7689   -4.3611    2.3088 H   0  0  0  0  0  0  0  0  0  0  0  0
   -3.5615   -5.0254    1.0758 H   0  0  0  0  0  0  0  0  0  0  0  0
   -3.0020   -4.2883    2.6027 H   0  0  0  0  0  0  0  0  0  0  0  0
   -1.6731   -2.7256    1.7370 H   0  0  0  0  0  0  0  0  0  0  0  0
   -0.2532   -0.5191    1.1231 H   0  0  0  0  0  0  0  0  0  0  0  0
    1.4869   -0.4104   -0.1191 H   0  0  0  0  0  0  0  0  0  0  0  0
    1.1754    0.1770   -1.7483 H   0  0  0  0  0  0  0  0  0  0  0  0
    4.5563    1.3527    0.1980 H   0  0  0  0  0  0  0  0  0  0  0  0
    3.0466    0.9317    1.0504 H   0  0  0  0  0  0  0  0  0  0  0  0
    3.6981   -1.4381    0.9263 H   0  0  0  0  0  0  0  0  0  0  0  0
    4.9880   -0.5121    1.7369 H   0  0  0  0  0  0  0  0  0  0  0  0
    5.9481   -3.1588   -0.5346 H   0  0  0  0  0  0  0  0  0  0  0  0
    6.8923   -2.3031    0.7935 H   0  0  0  0  0  0  0  0  0  0  0  0
    5.2449   -2.8862    1.0884 H   0  0  0  0  0  0  0  0  0  0  0  0
    4.8634   -2.4113   -1.7777 H   0  0  0  0  0  0  0  0  0  0  0  0
    5.4362   -0.7913   -2.2176 H   0  0  0  0  0  0  0  0  0  0  0  0
    2.7280   -1.6504   -1.1295 H   0  0  0  0  0  0  0  0  0  0  0  0
    3.1550   -0.8132   -2.6462 H   0  0  0  0  0  0  0  0  0  0  0  0
    2.9664    2.9683   -0.4401 H   0  0  0  0  0  0  0  0  0  0  0  0
    0.6349    7.0284    0.7120 H   0  0  0  0  0  0  0  0  0  0  0  0
   -2.7938    3.2828    1.5423 H   0  0  0  0  0  0  0  0  0  0  0  0
   -3.3268    4.0263    0.0047 H   0  0  0  0  0  0  0  0  0  0  0  0
  1  2  1  0
  2  3  1  0
  3  4  2  0
  4  5  1  0
  5  6  1  0
  5  7  2  0
  7  8  1  0
  8  9  1  0
  9 10  2  0
 10 11  1  0
 11 12  1  0
 10 13  1  0
 13 14  1  0
 14 15  1  0
 15 16  1  0
 16 17  1  0
 17 18  1  0
 18 19  1  0
 19 20  1  0
 19 21  1  0
 21 22  1  0
 14 23  2  0
 23 24  1  0
 24 25  1  0
 25 26  2  0
 26 27  1  0
 27 28  2  0
 28 29  1  0
 28 30  1  0
 12  3  1  0
 30 13  2  0
 12  8  2  0
 22 16  1  0
 30 24  1  0
  1 31  1  0
  1 32  1  0
  1 33  1  0
  4 34  1  0
  6 35  1  0
  6 36  1  0
  6 37  1  0
  7 38  1  0
  9 39  1  0
 15 40  1  0
 15 41  1  0
 17 42  1  0
 17 43  1  0
 18 44  1  0
 18 45  1  0
 20 46  1  0
 20 47  1  0
 20 48  1  0
 21 49  1  0
 21 50  1  0
 22 51  1  0
 22 52  1  0
 23 53  1  0
 26 54  1  0
 29 55  1  0
 29 56  1  0
M  END
$$$$
[H]c1nc(N([H])c2c([H])c([H])c(N3C([H])([H])C([H])([H])C([H])(N(C([H])([H])[H])C([H])([H])[H])C([H])([H])C3([H])[H])c([H])c2OC([H])([H])[H])nc(N([H])c2c([H])c([H])c([H])c([H])c2C(F)(F)F)c1Cl
     RDKit          3D

 64 67  0  0  0  0  0  0  0  0999 V2000
   -0.4056    1.1489   -3.4518 C   0  0  0  0  0  0  0  0  0  0  0  0
    0.3078    0.6935   -2.3234 O   0  0  0  0  0  0  0  0  0  0  0  0
   -0.3231    0.0114   -1.2720 C   0  0  0  0  0  0  0  0  0  0  0  0
   -1.6654   -0.1878   -1.3998 C   0  0  0  0  0  0  0  0  0  0  0  0
   -2.3711   -0.8530   -0.4082 C   0  0  0  0  0  0  0  0  0  0  0  0
   -1.6656   -1.2927    0.6879 C   0  0  0  0  0  0  0  0  0  0  0  0
   -0.2745   -1.0735    0.7961 C   0  0  0  0  0  0  0  0  0  0  0  0
    0.4374   -0.4238   -0.1642 C   0  0  0  0  0  0  0  0  0  0  0  0
    1.7894   -0.1254   -0.2187 N   0  0  0  0  0  0  0  0  0  0  0  0
    2.7600   -0.4483    0.7551 C   0  0  0  0  0  0  0  0  0  0  0  0
    2.4688   -1.1020    1.8757 N   0  0  0  0  0  0  0  0  0  0  0  0
    3.3993   -1.3966    2.7842 C   0  0  0  0  0  0  0  0  0  0  0  0
    4.7014   -1.0224    2.5742 C   0  0  0  0  0  0  0  0  0  0  0  0
    5.8727   -1.4355    3.7958 Cl  0  0  0  0  0  0  0  0  0  0  0  0
    5.0655   -0.3250    1.3988 C   0  0  0  0  0  0  0  0  0  0  0  0
    6.4104    0.0352    1.2323 N   0  0  0  0  0  0  0  0  0  0  0  0
    7.0103    0.7162    0.1781 C   0  0  0  0  0  0  0  0  0  0  0  0
    6.2749    1.1721   -0.8907 C   0  0  0  0  0  0  0  0  0  0  0  0
    6.9250    1.8620   -1.9218 C   0  0  0  0  0  0  0  0  0  0  0  0
    8.2666    2.0954   -1.8972 C   0  0  0  0  0  0  0  0  0  0  0  0
    8.9655    1.6308   -0.8250 C   0  0  0  0  0  0  0  0  0  0  0  0
    8.3964    0.9426    0.2296 C   0  0  0  0  0  0  0  0  0  0  0  0
    9.2622    0.4745    1.3467 C   0  0  0  0  0  0  0  0  0  0  0  0
   10.5842    0.8833    1.0825 F   0  0  0  0  0  0  0  0  0  0  0  0
    8.9263    1.0925    2.5111 F   0  0  0  0  0  0  0  0  0  0  0  0
    9.2109   -0.8880    1.3992 F   0  0  0  0  0  0  0  0  0  0  0  0
    4.0546   -0.0930    0.5776 N   0  0  0  0  0  0  0  0  0  0  0  0
   -3.7666   -1.0348   -0.5558 N   0  0  0  0  0  0  0  0  0  0  0  0
   -4.6076   -0.2467   -1.4402 C   0  0  0  0  0  0  0  0  0  0  0  0
   -5.7038    0.3932   -0.5724 C   0  0  0  0  0  0  0  0  0  0  0  0
   -6.5425   -0.7475   -0.0378 C   0  0  0  0  0  0  0  0  0  0  0  0
   -5.6878   -1.5614    0.8796 C   0  0  0  0  0  0  0  0  0  0  0  0
   -4.4476   -2.0719    0.1826 C   0  0  0  0  0  0  0  0  0  0  0  0
   -7.7324   -0.2817    0.6051 N   0  0  0  0  0  0  0  0  0  0  0  0
   -8.5654    0.4049   -0.3955 C   0  0  0  0  0  0  0  0  0  0  0  0
   -7.5061    0.6701    1.6710 C   0  0  0  0  0  0  0  0  0  0  0  0
    0.3090    1.6770   -4.1131 H   0  0  0  0  0  0  0  0  0  0  0  0
   -0.8322    0.3141   -4.0537 H   0  0  0  0  0  0  0  0  0  0  0  0
   -1.2727    1.7894   -3.1778 H   0  0  0  0  0  0  0  0  0  0  0  0
   -2.1972    0.1668   -2.2794 H   0  0  0  0  0  0  0  0  0  0  0  0
   -2.1328   -1.8085    1.4999 H   0  0  0  0  0  0  0  0  0  0  0  0
    0.2282   -1.4371    1.6718 H   0  0  0  0  0  0  0  0  0  0  0  0
    2.2056    0.4041   -1.0610 H   0  0  0  0  0  0  0  0  0  0  0  0
    3.0967   -1.9395    3.6912 H   0  0  0  0  0  0  0  0  0  0  0  0
    7.0391   -0.2686    2.0540 H   0  0  0  0  0  0  0  0  0  0  0  0
    5.2041    1.0403   -1.0069 H   0  0  0  0  0  0  0  0  0  0  0  0
    6.3302    2.2213   -2.7702 H   0  0  0  0  0  0  0  0  0  0  0  0
    8.7652    2.6386   -2.7124 H   0  0  0  0  0  0  0  0  0  0  0  0
   10.0451    1.8059   -0.7815 H   0  0  0  0  0  0  0  0  0  0  0  0
   -4.1122    0.5915   -1.9237 H   0  0  0  0  0  0  0  0  0  0  0  0
   -5.0397   -0.9513   -2.1804 H   0  0  0  0  0  0  0  0  0  0  0  0
   -6.2722    1.1495   -1.1108 H   0  0  0  0  0  0  0  0  0  0  0  0
   -5.1423    0.8087    0.3125 H   0  0  0  0  0  0  0  0  0  0  0  0
   -6.8195   -1.3544   -0.9362 H   0  0  0  0  0  0  0  0  0  0  0  0
   -5.4356   -1.0254    1.7969 H   0  0  0  0  0  0  0  0  0  0  0  0
   -6.2784   -2.4669    1.1652 H   0  0  0  0  0  0  0  0  0  0  0  0
   -4.7945   -2.8335   -0.5836 H   0  0  0  0  0  0  0  0  0  0  0  0
   -3.8341   -2.5936    0.9308 H   0  0  0  0  0  0  0  0  0  0  0  0
   -9.5687   -0.0954   -0.4427 H   0  0  0  0  0  0  0  0  0  0  0  0
   -8.6488    1.4862   -0.1702 H   0  0  0  0  0  0  0  0  0  0  0  0
   -8.1118    0.3222   -1.4149 H   0  0  0  0  0  0  0  0  0  0  0  0
   -6.5115    0.6473    2.1115 H   0  0  0  0  0  0  0  0  0  0  0  0
   -8.2199    0.3936    2.4930 H   0  0  0  0  0  0  0  0  0  0  0  0
   -7.8236    1.7020    1.3670 H   0  0  0  0  0  0  0  0  0  0  0  0
  1  2  1  0
  2  3  1  0
  3  4  2  0
  4  5  1  0
  5  6  2  0
  6  7  1  0
  7  8  2  0
  8  9  1  0
  9 10  1  0
 10 11  2  0
 11 12  1  0
 12 13  2  0
 13 14  1  0
 13 15  1  0
 15 16  1  0
 16 17  1  0
 17 18  2  0
 18 19  1  0
 19 20  2  0
 20 21  1  0
 21 22  2  0
 22 23  1  0
 23 24  1  0
 23 25  1  0
 23 26  1  0
 15 27  2  0
  5 28  1  0
 28 29  1  0
 29 30  1  0
 30 31  1  0
 31 32  1  0
 32 33  1  0
 31 34  1  0
 34 35  1  0
 34 36  1  0
  8  3  1  0
 27 10  1  0
 33 28  1  0
 22 17  1  0
  1 37  1  0
  1 38  1  0
  1 39  1  0
  4 40  1  0
  6 41  1  0
  7 42  1  0
  9 43  1  0
 12 44  1  0
 16 45  1  0
 18 46  1  0
 19 47  1  0
 20 48  1  0
 21 49  1  0
 29 50  1  0
 29 51  1  0
 30 52  1  0
 30 53  1  0
 31 54  1  0
 32 55  1  0
 32 56  1  0
 33 57  1  0
 33 58  1  0
 35 59  1  0
 35 60  1  0
 35 61  1  0
 36 62  1  0
 36 63  1  0
 36 64  1  0
M  END
$$$$
[H]N=C(N([H])[H])N([H])C([H])([H])C([H])([H])C([H])([H])[C@]([H])(C(=O)N([H])[C@]([H])(C(=O)N1C([H])([H])C([H])([H])C([H])([H])[C@@]1([H])C(=O)N([H])[C@]([H])(C(=O)N([H])[C@]([H])(C(=O)N([H])[H])C([H])([H])c1c([H])c([H])c([H])c([H])c1[H])C([H])([H])[H])C([H])([H])c1c([H])c([H])c([H])c([H])c1[H])N([H])C(=O)[C@@]([H])(N([H])C(=O)C([H])([H])[H])C([H])([H])c1c([H])c([H])c([H])c([H])c1[H]
     RDKit          3D

116119  0  0  0  0  0  0  0  0999 V2000
    5.4722    2.0855    1.4386 C   0  0  0  0  0  0  0  0  0  0  0  0
    5.4139    0.9941    0.4229 C   0  0  2  0  0  0  0  0  0  0  0  0
    4.4961   -0.0415    0.7456 N   0  0  0  0  0  0  0  0  0  0  0  0
    4.2526   -1.2925    0.1370 C   0  0  0  0  0  0  0  0  0  0  0  0
    4.7822   -1.8243   -0.7627 O   0  0  0  0  0  0  0  0  0  0  0  0
    3.0576   -2.0882    0.7773 C   0  0  2  0  0  0  0  0  0  0  0  0
    3.2912   -3.5515    0.2812 C   0  0  0  0  0  0  0  0  0  0  0  0
    2.7827   -3.4771   -1.1596 C   0  0  0  0  0  0  0  0  0  0  0  0
    2.1793   -2.1193   -1.3036 C   0  0  0  0  0  0  0  0  0  0  0  0
    1.8482   -1.7399    0.1159 N   0  0  0  0  0  0  0  0  0  0  0  0
    0.6200   -1.1936    0.5349 C   0  0  0  0  0  0  0  0  0  0  0  0
    0.4709   -0.8544    1.7139 O   0  0  0  0  0  0  0  0  0  0  0  0
   -0.5066   -1.0667   -0.5244 C   0  0  2  0  0  0  0  0  0  0  0  0
   -0.1828    0.1364   -1.3246 C   0  0  0  0  0  0  0  0  0  0  0  0
   -1.0096    0.3919   -2.5362 C   0  0  0  0  0  0  0  0  0  0  0  0
   -0.5525   -0.1639   -3.7481 C   0  0  0  0  0  0  0  0  0  0  0  0
   -1.2787    0.0687   -4.8835 C   0  0  0  0  0  0  0  0  0  0  0  0
   -2.4555    0.8407   -4.8564 C   0  0  0  0  0  0  0  0  0  0  0  0
   -2.8595    1.3538   -3.6652 C   0  0  0  0  0  0  0  0  0  0  0  0
   -2.1411    1.1293   -2.5206 C   0  0  0  0  0  0  0  0  0  0  0  0
   -1.8071   -1.2014    0.0131 N   0  0  0  0  0  0  0  0  0  0  0  0
   -3.0012   -1.3652    0.6179 C   0  0  0  0  0  0  0  0  0  0  0  0
   -3.2569   -1.7069    1.7955 O   0  0  0  0  0  0  0  0  0  0  0  0
   -4.3452   -1.1687   -0.1443 C   0  0  1  0  0  0  0  0  0  0  0  0
   -4.8612   -2.5732   -0.3983 C   0  0  0  0  0  0  0  0  0  0  0  0
   -6.1446   -2.5965   -1.1369 C   0  0  0  0  0  0  0  0  0  0  0  0
   -6.6553   -4.0432   -1.2407 C   0  0  0  0  0  0  0  0  0  0  0  0
   -5.6978   -4.8744   -1.9064 N   0  0  0  0  0  0  0  0  0  0  0  0
   -5.8685   -6.3079   -1.8222 C   0  0  0  0  0  0  0  0  0  0  0  0
   -7.1169   -6.9187   -1.5294 N   0  0  0  0  0  0  0  0  0  0  0  0
   -4.7969   -7.0629   -2.0277 N   0  0  0  0  0  0  0  0  0  0  0  0
   -5.2948   -0.4390    0.6340 N   0  0  0  0  0  0  0  0  0  0  0  0
   -5.1323    0.9095    0.9499 C   0  0  0  0  0  0  0  0  0  0  0  0
   -4.1075    1.5139    0.5941 O   0  0  0  0  0  0  0  0  0  0  0  0
   -6.1601    1.7153    1.7194 C   0  0  2  0  0  0  0  0  0  0  0  0
   -7.5256    1.5543    1.1910 C   0  0  0  0  0  0  0  0  0  0  0  0
   -8.5153    2.4074    1.9195 C   0  0  0  0  0  0  0  0  0  0  0  0
   -9.0314    2.0171    3.1377 C   0  0  0  0  0  0  0  0  0  0  0  0
   -9.9479    2.8103    3.7855 C   0  0  0  0  0  0  0  0  0  0  0  0
  -10.3918    4.0297    3.2626 C   0  0  0  0  0  0  0  0  0  0  0  0
   -9.8321    4.3538    2.0492 C   0  0  0  0  0  0  0  0  0  0  0  0
   -8.9142    3.5986    1.3502 C   0  0  0  0  0  0  0  0  0  0  0  0
   -5.6973    3.0135    1.9323 N   0  0  0  0  0  0  0  0  0  0  0  0
   -5.2529    4.2540    2.1243 C   0  0  0  0  0  0  0  0  0  0  0  0
   -5.3681    4.7375    3.5903 C   0  0  0  0  0  0  0  0  0  0  0  0
   -4.7894    5.0571    1.3112 O   0  0  0  0  0  0  0  0  0  0  0  0
    6.7036    0.7094   -0.1384 C   0  0  0  0  0  0  0  0  0  0  0  0
    6.6492   -0.1868   -1.1435 O   0  0  0  0  0  0  0  0  0  0  0  0
    8.0256    1.1004    0.0817 N   0  0  0  0  0  0  0  0  0  0  0  0
    9.0642    0.5137   -0.7925 C   0  0  1  0  0  0  0  0  0  0  0  0
   10.1176    1.4662   -1.2593 C   0  0  0  0  0  0  0  0  0  0  0  0
   10.9544    2.0277   -0.1758 C   0  0  0  0  0  0  0  0  0  0  0  0
   10.5942    3.1109    0.5802 C   0  0  0  0  0  0  0  0  0  0  0  0
   11.4505    3.5467    1.5910 C   0  0  0  0  0  0  0  0  0  0  0  0
   12.6333    2.9069    1.8367 C   0  0  0  0  0  0  0  0  0  0  0  0
   12.9828    1.8148    1.0591 C   0  0  0  0  0  0  0  0  0  0  0  0
   12.1869    1.3632    0.0633 C   0  0  0  0  0  0  0  0  0  0  0  0
    9.7365   -0.5886    0.0152 C   0  0  0  0  0  0  0  0  0  0  0  0
   10.5284   -1.5826   -0.5585 N   0  0  0  0  0  0  0  0  0  0  0  0
    9.4857   -0.5194    1.2747 O   0  0  0  0  0  0  0  0  0  0  0  0
    5.2346    3.0891    1.0154 H   0  0  0  0  0  0  0  0  0  0  0  0
    4.8260    1.9047    2.3488 H   0  0  0  0  0  0  0  0  0  0  0  0
    6.5046    2.1485    1.8459 H   0  0  0  0  0  0  0  0  0  0  0  0
    4.8755    1.4739   -0.5298 H   0  0  0  0  0  0  0  0  0  0  0  0
    3.8841    0.1607    1.6083 H   0  0  0  0  0  0  0  0  0  0  0  0
    3.1723   -2.0467    1.8062 H   0  0  0  0  0  0  0  0  0  0  0  0
    2.6327   -4.2541    0.8117 H   0  0  0  0  0  0  0  0  0  0  0  0
    4.3500   -3.8106    0.2920 H   0  0  0  0  0  0  0  0  0  0  0  0
    3.6103   -3.6306   -1.8823 H   0  0  0  0  0  0  0  0  0  0  0  0
    2.0342   -4.2922   -1.3758 H   0  0  0  0  0  0  0  0  0  0  0  0
    1.2597   -2.1559   -1.8994 H   0  0  0  0  0  0  0  0  0  0  0  0
    2.7883   -1.3237   -1.7480 H   0  0  0  0  0  0  0  0  0  0  0  0
   -0.3191   -2.0269   -1.0976 H   0  0  0  0  0  0  0  0  0  0  0  0
   -0.2210    1.0747   -0.6496 H   0  0  0  0  0  0  0  0  0  0  0  0
    0.8704    0.1187   -1.6103 H   0  0  0  0  0  0  0  0  0  0  0  0
    0.3578   -0.7512   -3.7648 H   0  0  0  0  0  0  0  0  0  0  0  0
   -0.9871   -0.3163   -5.8437 H   0  0  0  0  0  0  0  0  0  0  0  0
   -2.9926    0.9954   -5.8005 H   0  0  0  0  0  0  0  0  0  0  0  0
   -3.7679    1.9696   -3.5926 H   0  0  0  0  0  0  0  0  0  0  0  0
   -2.4954    1.5787   -1.5845 H   0  0  0  0  0  0  0  0  0  0  0  0
   -1.2306   -1.7642    1.1152 H   0  0  0  0  0  0  0  0  0  0  0  0
   -4.0949   -0.6557   -1.0519 H   0  0  0  0  0  0  0  0  0  0  0  0
   -5.0590   -2.9967    0.6437 H   0  0  0  0  0  0  0  0  0  0  0  0
   -4.0809   -3.2349   -0.8425 H   0  0  0  0  0  0  0  0  0  0  0  0
   -6.9261   -2.0605   -0.6180 H   0  0  0  0  0  0  0  0  0  0  0  0
   -5.9890   -2.2794   -2.1910 H   0  0  0  0  0  0  0  0  0  0  0  0
   -7.5565   -4.0059   -1.8584 H   0  0  0  0  0  0  0  0  0  0  0  0
   -6.9386   -4.4149   -0.2369 H   0  0  0  0  0  0  0  0  0  0  0  0
   -4.9059   -4.4795   -2.4182 H   0  0  0  0  0  0  0  0  0  0  0  0
   -7.9761   -6.4685   -1.9095 H   0  0  0  0  0  0  0  0  0  0  0  0
   -7.1672   -7.7774   -0.9958 H   0  0  0  0  0  0  0  0  0  0  0  0
   -3.9248   -6.5053   -2.2434 H   0  0  0  0  0  0  0  0  0  0  0  0
   -6.1769   -0.9489    0.9931 H   0  0  0  0  0  0  0  0  0  0  0  0
   -6.1278    1.1804    2.7535 H   0  0  0  0  0  0  0  0  0  0  0  0
   -7.6356    1.7719    0.1179 H   0  0  0  0  0  0  0  0  0  0  0  0
   -7.9074    0.4804    1.2984 H   0  0  0  0  0  0  0  0  0  0  0  0
   -8.6766    1.0771    3.5563 H   0  0  0  0  0  0  0  0  0  0  0  0
  -10.3636    2.5442    4.7500 H   0  0  0  0  0  0  0  0  0  0  0  0
  -11.1009    4.6539    3.7741 H   0  0  0  0  0  0  0  0  0  0  0  0
  -10.1662    5.3095    1.5837 H   0  0  0  0  0  0  0  0  0  0  0  0
   -8.5142    3.9089    0.3998 H   0  0  0  0  0  0  0  0  0  0  0  0
   -5.6955    3.1672    0.5417 H   0  0  0  0  0  0  0  0  0  0  0  0
   -4.8364    3.9517    4.1758 H   0  0  0  0  0  0  0  0  0  0  0  0
   -4.8883    5.6977    3.6788 H   0  0  0  0  0  0  0  0  0  0  0  0
   -6.4662    4.7569    3.8098 H   0  0  0  0  0  0  0  0  0  0  0  0
    8.3064    1.7589    0.8181 H   0  0  0  0  0  0  0  0  0  0  0  0
    8.6001   -0.0034   -1.6298 H   0  0  0  0  0  0  0  0  0  0  0  0
   10.7444    0.8871   -1.9976 H   0  0  0  0  0  0  0  0  0  0  0  0
    9.6761    2.3319   -1.8412 H   0  0  0  0  0  0  0  0  0  0  0  0
    9.6813    3.6326    0.4031 H   0  0  0  0  0  0  0  0  0  0  0  0
   11.1666    4.4097    2.2076 H   0  0  0  0  0  0  0  0  0  0  0  0
   13.2927    3.2128    2.6042 H   0  0  0  0  0  0  0  0  0  0  0  0
   13.9338    1.3295    1.2694 H   0  0  0  0  0  0  0  0  0  0  0  0
   12.4711    0.5485   -0.5595 H   0  0  0  0  0  0  0  0  0  0  0  0
   11.3088   -2.0124    0.0138 H   0  0  0  0  0  0  0  0  0  0  0  0
   10.3255   -1.8929   -1.5519 H   0  0  0  0  0  0  0  0  0  0  0  0
  1  2  1  0
  2  3  1  0
  3  4  1  0
  4  5  2  0
  4  6  1  0
  6  7  1  0
  7  8  1  0
  8  9  1  0
  9 10  1  0
 10 11  1  0
 11 12  2  0
 11 13  1  0
 13 14  1  0
 14 15  1  0
 15 16  2  0
 16 17  1  0
 17 18  2  0
 18 19  1  0
 19 20  2  0
 13 21  1  0
 21 22  1  0
 22 23  2  0
 22 24  1  0
 24 25  1  0
 25 26  1  0
 26 27  1  0
 27 28  1  0
 28 29  1  0
 29 30  1  0
 29 31  2  3
 24 32  1  0
 32 33  1  0
 33 34  2  0
 33 35  1  0
 35 36  1  0
 36 37  1  0
 37 38  2  0
 38 39  1  0
 39 40  2  0
 40 41  1  0
 41 42  2  0
 35 43  1  0
 43 44  1  0
 44 45  1  0
 44 46  2  0
  2 47  1  0
 47 48  2  0
 47 49  1  0
 49 50  1  0
 50 51  1  0
 51 52  1  0
 52 53  2  0
 53 54  1  0
 54 55  2  0
 55 56  1  0
 56 57  2  0
 50 58  1  0
 58 59  1  0
 58 60  2  0
 10  6  1  0
 20 15  1  0
 42 37  1  0
 57 52  1  0
  1 61  1  0
  1 62  1  0
  1 63  1  0
  2 64  1  6
  3 65  1  0
  6 66  1  1
  7 67  1  0
  7 68  1  0
  8 69  1  0
  8 70  1  0
  9 71  1  0
  9 72  1  0
 13 73  1  6
 14 74  1  0
 14 75  1  0
 16 76  1  0
 17 77  1  0
 18 78  1  0
 19 79  1  0
 20 80  1  0
 21 81  1  0
 24 82  1  6
 25 83  1  0
 25 84  1  0
 26 85  1  0
 26 86  1  0
 27 87  1  0
 27 88  1  0
 28 89  1  0
 30 90  1  0
 30 91  1  0
 31 92  1  0
 32 93  1  0
 35 94  1  1
 36 95  1  0
 36 96  1  0
 38 97  1  0
 39 98  1  0
 40 99  1  0
 41100  1  0
 42101  1  0
 43102  1  0
 45103  1  0
 45104  1  0
 45105  1  0
 49106  1  0
 50107  1  6
 51108  1  0
 51109  1  0
 53110  1  0
 54111  1  0
 55112  1  0
 56113  1  0
 57114  1  0
 59115  1  0
 59116  1  0
M  END
$$$$
[H]c1nn(C([H])([H])[H])c([H])c1-c1c([H])c([H])c(S(=O)(=O)N2C([H])([H])C([H])([H])N(C(=O)c3c([H])c([H])c([H])c(C(F)(F)F)c3[H])[C@]([H])(C([H])([H])[H])C2([H])[H])c([H])c1[H]
     RDKit          3D

 57 60  0  0  0  0  0  0  0  0999 V2000
   -1.9255   -3.2629   -1.6271 C   0  0  0  0  0  0  0  0  0  0  0  0
   -1.6459   -1.7290   -1.4311 C   0  0  2  0  0  0  0  0  0  0  0  0
   -0.2846   -1.5706   -0.7659 C   0  0  0  0  0  0  0  0  0  0  0  0
   -0.5565   -1.1066    0.6147 N   0  0  0  0  0  0  0  0  0  0  0  0
   -1.5272   -2.0249    1.2198 C   0  0  0  0  0  0  0  0  0  0  0  0
   -2.9206   -1.7320    0.7181 C   0  0  0  0  0  0  0  0  0  0  0  0
   -2.7558   -1.2029   -0.6472 N   0  0  0  0  0  0  0  0  0  0  0  0
   -3.5589   -0.1228   -1.0375 C   0  0  0  0  0  0  0  0  0  0  0  0
   -3.1636    0.5902   -2.0329 O   0  0  0  0  0  0  0  0  0  0  0  0
   -4.8101    0.2601   -0.4226 C   0  0  0  0  0  0  0  0  0  0  0  0
   -5.7477   -0.7761   -0.2678 C   0  0  0  0  0  0  0  0  0  0  0  0
   -6.9568   -0.5021    0.2878 C   0  0  0  0  0  0  0  0  0  0  0  0
   -7.2580    0.7954    0.7105 C   0  0  0  0  0  0  0  0  0  0  0  0
   -6.3468    1.8198    0.5747 C   0  0  0  0  0  0  0  0  0  0  0  0
   -5.1056    1.5458   -0.0051 C   0  0  0  0  0  0  0  0  0  0  0  0
   -6.6751    3.1495    1.0860 C   0  0  0  0  0  0  0  0  0  0  0  0
   -5.5488    3.9362    1.0693 F   0  0  0  0  0  0  0  0  0  0  0  0
   -7.0951    2.9710    2.4130 F   0  0  0  0  0  0  0  0  0  0  0  0
   -7.6905    3.6707    0.3718 F   0  0  0  0  0  0  0  0  0  0  0  0
    0.8910   -1.2028    1.5320 S   0  0  0  0  0  0  0  0  0  0  0  0
    0.4771   -0.7710    2.9485 O   0  0  0  0  0  0  0  0  0  0  0  0
    1.3153   -2.6497    1.7193 O   0  0  0  0  0  0  0  0  0  0  0  0
    2.1956   -0.2434    0.9674 C   0  0  0  0  0  0  0  0  0  0  0  0
    3.1279   -0.7788    0.0494 C   0  0  0  0  0  0  0  0  0  0  0  0
    4.2816   -0.1307   -0.3101 C   0  0  0  0  0  0  0  0  0  0  0  0
    4.6182    1.1005    0.2016 C   0  0  0  0  0  0  0  0  0  0  0  0
    3.7149    1.6492    1.0981 C   0  0  0  0  0  0  0  0  0  0  0  0
    2.5433    1.0048    1.4736 C   0  0  0  0  0  0  0  0  0  0  0  0
    5.9565    1.6727    0.0620 C   0  0  0  0  0  0  0  0  0  0  0  0
    6.5583    2.6820    0.7991 C   0  0  0  0  0  0  0  0  0  0  0  0
    7.8536    2.6881    0.4740 N   0  0  0  0  0  0  0  0  0  0  0  0
    8.1364    1.7529   -0.4259 N   0  0  0  0  0  0  0  0  0  0  0  0
    9.4913    1.4788   -0.9118 C   0  0  0  0  0  0  0  0  0  0  0  0
    6.9742    1.1174   -0.6946 C   0  0  0  0  0  0  0  0  0  0  0  0
   -2.7458   -3.5154   -0.8827 H   0  0  0  0  0  0  0  0  0  0  0  0
   -2.3599   -3.4656   -2.5933 H   0  0  0  0  0  0  0  0  0  0  0  0
   -1.0265   -3.8439   -1.4323 H   0  0  0  0  0  0  0  0  0  0  0  0
   -1.6774   -1.2965   -2.4153 H   0  0  0  0  0  0  0  0  0  0  0  0
    0.3164   -2.5148   -0.7694 H   0  0  0  0  0  0  0  0  0  0  0  0
    0.3026   -0.7649   -1.2400 H   0  0  0  0  0  0  0  0  0  0  0  0
   -1.2760   -3.0935    1.0294 H   0  0  0  0  0  0  0  0  0  0  0  0
   -1.4875   -1.8471    2.3220 H   0  0  0  0  0  0  0  0  0  0  0  0
   -3.2946   -0.8657    1.3831 H   0  0  0  0  0  0  0  0  0  0  0  0
   -3.6235   -2.5408    0.7862 H   0  0  0  0  0  0  0  0  0  0  0  0
   -5.4891   -1.7881   -0.6083 H   0  0  0  0  0  0  0  0  0  0  0  0
   -7.7162   -1.2892    0.3974 H   0  0  0  0  0  0  0  0  0  0  0  0
   -8.2405    0.9983    1.1478 H   0  0  0  0  0  0  0  0  0  0  0  0
   -4.3701    2.3351   -0.1348 H   0  0  0  0  0  0  0  0  0  0  0  0
    2.8411   -1.7445   -0.3564 H   0  0  0  0  0  0  0  0  0  0  0  0
    4.9428   -0.6071   -1.0451 H   0  0  0  0  0  0  0  0  0  0  0  0
    3.9864    2.6199    1.5000 H   0  0  0  0  0  0  0  0  0  0  0  0
    1.8783    1.4551    2.1894 H   0  0  0  0  0  0  0  0  0  0  0  0
    6.0487    3.3330    1.4971 H   0  0  0  0  0  0  0  0  0  0  0  0
   10.1475    1.4985    0.0231 H   0  0  0  0  0  0  0  0  0  0  0  0
    9.5268    0.3941   -1.2031 H   0  0  0  0  0  0  0  0  0  0  0  0
    9.8661    2.1523   -1.6591 H   0  0  0  0  0  0  0  0  0  0  0  0
    6.8882    0.3118   -1.3974 H   0  0  0  0  0  0  0  0  0  0  0  0
  1  2  1  0
  2  3  1  0
  3  4  1  0
  4  5  1  0
  5  6  1  0
  6  7  1  0
  7  8  1  0
  8  9  2  0
  8 10  1  0
 10 11  2  0
 11 12  1  0
 12 13  2  0
 13 14  1  0
 14 15  2  0
 14 16  1  0
 16 17  1  0
 16 18  1  0
 16 19  1  0
  4 20  1  0
 20 21  2  0
 20 22  2  0
 20 23  1  0
 23 24  2  0
 24 25  1  0
 25 26  2  0
 26 27  1  0
 27 28  2  0
 26 29  1  0
 29 30  1  0
 30 31  2  0
 31 32  1  0
 32 33  1  0
 32 34  1  0
  7  2  1  0
 15 10  1  0
 28 23  1  0
 34 29  2  0
  1 35  1  0
  1 36  1  0
  1 37  1  0
  2 38  1  6
  3 39  1  0
  3 40  1  0
  5 41  1  0
  5 42  1  0
  6 43  1  0
  6 44  1  0
 11 45  1  0
 12 46  1  0
 13 47  1  0
 15 48  1  0
 24 49  1  0
 25 50  1  0
 27 51  1  0
 28 52  1  0
 30 53  1  0
 33 54  1  0
 33 55  1  0
 33 56  1  0
 34 57  1  0
M  END
$$$$
[H]C1=C2C([H])([H])C([H])([H])[C@@]3([H])[C@]4([H])C([H])([H])C([H])([H])[C@](C(=O)C(C([H])([H])[H])(C([H])([H])[H])C([H])([H])[H])(C([H])([H])[H])[C@@]4(C([H])([H])[H])C([H])([H])C([H])([H])[C@]3([H])[C@@]2(C([H])([H])[H])C([H])([H])C([H])([H])C1=O
     RDKit          3D

 65 68  0  0  0  0  0  0  0  0999 V2000
    0.2934   -0.6842    2.1165 C   0  0  0  0  0  0  0  0  0  0  0  0
    0.7823    0.0894    0.8794 C   0  0  2  0  0  0  0  0  0  0  0  0
    0.2014    1.4226    0.9633 C   0  0  0  0  0  0  0  0  0  0  0  0
   -1.2869    1.3591    0.8386 C   0  0  0  0  0  0  0  0  0  0  0  0
   -1.8433    0.4082   -0.1362 C   0  0  1  0  0  0  0  0  0  0  0  0
   -1.2170   -0.9379   -0.2196 C   0  0  1  0  0  0  0  0  0  0  0  0
   -1.6423   -1.5333   -1.5694 C   0  0  0  0  0  0  0  0  0  0  0  0
   -3.1378   -1.5879   -1.6992 C   0  0  0  0  0  0  0  0  0  0  0  0
   -3.8477   -0.4190   -1.1413 C   0  0  0  0  0  0  0  0  0  0  0  0
   -4.9173    0.0129   -1.7890 C   0  0  0  0  0  0  0  0  0  0  0  0
   -5.6719    1.1739   -1.2865 C   0  0  0  0  0  0  0  0  0  0  0  0
   -6.4111    1.8905   -1.9655 O   0  0  0  0  0  0  0  0  0  0  0  0
   -5.4877    1.4600    0.1771 C   0  0  0  0  0  0  0  0  0  0  0  0
   -4.0270    1.4774    0.4573 C   0  0  0  0  0  0  0  0  0  0  0  0
   -3.3224    0.1944    0.1013 C   0  0  2  0  0  0  0  0  0  0  0  0
   -3.5769   -0.7855    1.2291 C   0  0  0  0  0  0  0  0  0  0  0  0
    0.2815   -0.7427   -0.2938 C   0  0  2  0  0  0  0  0  0  0  0  0
    1.0706   -2.0031   -0.0996 C   0  0  0  0  0  0  0  0  0  0  0  0
    2.2711   -1.6141    0.7863 C   0  0  0  0  0  0  0  0  0  0  0  0
    2.2500   -0.1066    0.8261 C   0  0  2  0  0  0  0  0  0  0  0  0
    2.8194    0.4929    2.0966 C   0  0  0  0  0  0  0  0  0  0  0  0
    2.9732    0.5237   -0.2915 C   0  0  0  0  0  0  0  0  0  0  0  0
    2.2869    1.2246   -1.0645 O   0  0  0  0  0  0  0  0  0  0  0  0
    4.3727    0.4599   -0.6419 C   0  0  0  0  0  0  0  0  0  0  0  0
    5.4003    0.8645    0.3544 C   0  0  0  0  0  0  0  0  0  0  0  0
    4.6092    1.4631   -1.8075 C   0  0  0  0  0  0  0  0  0  0  0  0
    4.8150   -0.8603   -1.2400 C   0  0  0  0  0  0  0  0  0  0  0  0
   -0.0476   -1.7003    1.8810 H   0  0  0  0  0  0  0  0  0  0  0  0
   -0.5491   -0.1721    2.6163 H   0  0  0  0  0  0  0  0  0  0  0  0
    1.0688   -0.8164    2.8884 H   0  0  0  0  0  0  0  0  0  0  0  0
    0.3786    1.8107    2.0162 H   0  0  0  0  0  0  0  0  0  0  0  0
    0.5720    2.2224    0.3220 H   0  0  0  0  0  0  0  0  0  0  0  0
   -1.8018    1.2222    1.8364 H   0  0  0  0  0  0  0  0  0  0  0  0
   -1.6410    2.3923    0.5380 H   0  0  0  0  0  0  0  0  0  0  0  0
   -1.7687    0.8731   -1.1626 H   0  0  0  0  0  0  0  0  0  0  0  0
   -1.5503   -1.6540    0.5286 H   0  0  0  0  0  0  0  0  0  0  0  0
   -1.2593   -0.9186   -2.4098 H   0  0  0  0  0  0  0  0  0  0  0  0
   -1.2458   -2.5530   -1.7052 H   0  0  0  0  0  0  0  0  0  0  0  0
   -3.4669   -1.8364   -2.7265 H   0  0  0  0  0  0  0  0  0  0  0  0
   -3.4689   -2.4711   -1.0756 H   0  0  0  0  0  0  0  0  0  0  0  0
   -5.2988   -0.4371   -2.6980 H   0  0  0  0  0  0  0  0  0  0  0  0
   -6.0430    0.6670    0.7081 H   0  0  0  0  0  0  0  0  0  0  0  0
   -5.9301    2.4192    0.4606 H   0  0  0  0  0  0  0  0  0  0  0  0
   -3.8816    1.6274    1.5579 H   0  0  0  0  0  0  0  0  0  0  0  0
   -3.5901    2.3580   -0.0576 H   0  0  0  0  0  0  0  0  0  0  0  0
   -3.6063   -1.8315    0.8567 H   0  0  0  0  0  0  0  0  0  0  0  0
   -4.5844   -0.5951    1.6665 H   0  0  0  0  0  0  0  0  0  0  0  0
   -2.8561   -0.6556    2.0613 H   0  0  0  0  0  0  0  0  0  0  0  0
    0.4587   -0.3131   -1.2742 H   0  0  0  0  0  0  0  0  0  0  0  0
    1.4313   -2.3357   -1.1177 H   0  0  0  0  0  0  0  0  0  0  0  0
    0.5157   -2.8489    0.3019 H   0  0  0  0  0  0  0  0  0  0  0  0
    3.1295   -2.0801    0.3291 H   0  0  0  0  0  0  0  0  0  0  0  0
    2.1602   -2.0786    1.7911 H   0  0  0  0  0  0  0  0  0  0  0  0
    3.3754    1.4598    1.8825 H   0  0  0  0  0  0  0  0  0  0  0  0
    2.0130    0.8887    2.7874 H   0  0  0  0  0  0  0  0  0  0  0  0
    3.4128   -0.2121    2.6902 H   0  0  0  0  0  0  0  0  0  0  0  0
    6.3998    0.7203   -0.1095 H   0  0  0  0  0  0  0  0  0  0  0  0
    5.4025    0.3224    1.2963 H   0  0  0  0  0  0  0  0  0  0  0  0
    5.3356    1.9483    0.5912 H   0  0  0  0  0  0  0  0  0  0  0  0
    3.8471    1.1978   -2.5638 H   0  0  0  0  0  0  0  0  0  0  0  0
    4.5321    2.4855   -1.4258 H   0  0  0  0  0  0  0  0  0  0  0  0
    5.6091    1.2147   -2.2287 H   0  0  0  0  0  0  0  0  0  0  0  0
    5.2915   -1.5190   -0.4848 H   0  0  0  0  0  0  0  0  0  0  0  0
    5.6125   -0.6666   -1.9870 H   0  0  0  0  0  0  0  0  0  0  0  0
    4.0063   -1.3773   -1.7880 H   0  0  0  0  0  0  0  0  0  0  0  0
  2  1  1  1
  2  3  1  0
  3  4  1  0
  4  5  1  0
  5  6  1  0
  6  7  1  0
  7  8  1  0
  8  9  1  0
  9 10  2  0
 10 11  1  0
 11 12  2  0
 11 13  1  0
 13 14  1  0
 14 15  1  0
 15 16  1  1
  6 17  1  0
 17 18  1  0
 18 19  1  0
 19 20  1  0
 20 21  1  0
 20 22  1  6
 22 23  2  0
 22 24  1  0
 24 25  1  0
 24 26  1  0
 24 27  1  0
 17  2  1  0
 20  2  1  0
 15  5  1  0
 15  9  1  0
  1 28  1  0
  1 29  1  0
  1 30  1  0
  3 31  1  0
  3 32  1  0
  4 33  1  0
  4 34  1  0
  5 35  1  6
  6 36  1  1
  7 37  1  0
  7 38  1  0
  8 39  1  0
  8 40  1  0
 10 41  1  0
 13 42  1  0
 13 43  1  0
 14 44  1  0
 14 45  1  0
 16 46  1  0
 16 47  1  0
 16 48  1  0
 17 49  1  6
 18 50  1  0
 18 51  1  0
 19 52  1  0
 19 53  1  0
 21 54  1  0
 21 55  1  0
 21 56  1  0
 25 57  1  0
 25 58  1  0
 25 59  1  0
 26 60  1  0
 26 61  1  0
 26 62  1  0
 27 63  1  0
 27 64  1  0
 27 65  1  0
M  END
$$$$
[H]c1nc(N([H])c2c([H])c([H])c(N3C([H])([H])C([H])([H])N(C([H])([H])[H])C([H])([H])C3([H])[H])c([H])c2OC([H])([H])[H])nc(N([H])c2c([H])c([H])c([H])c([H])c2S(=O)(=O)C([H])([H])[H])c1Cl
     RDKit          3D

 61 64  0  0  0  0  0  0  0  0999 V2000
    1.0167   -1.9557    3.5659 C   0  0  0  0  0  0  0  0  0  0  0  0
    0.5506   -1.2490    2.4396 O   0  0  0  0  0  0  0  0  0  0  0  0
    1.4214   -0.5198    1.6629 C   0  0  0  0  0  0  0  0  0  0  0  0
    2.7524   -0.4896    2.0047 C   0  0  0  0  0  0  0  0  0  0  0  0
    3.6937    0.2093    1.2922 C   0  0  0  0  0  0  0  0  0  0  0  0
    3.2431    0.9002    0.1899 C   0  0  0  0  0  0  0  0  0  0  0  0
    1.8863    0.8745   -0.1659 C   0  0  0  0  0  0  0  0  0  0  0  0
    0.9467    0.1829    0.5364 C   0  0  0  0  0  0  0  0  0  0  0  0
   -0.4140    0.0914    0.2510 N   0  0  0  0  0  0  0  0  0  0  0  0
   -1.0972    0.7156   -0.8103 C   0  0  0  0  0  0  0  0  0  0  0  0
   -0.5495    1.5197   -1.7321 N   0  0  0  0  0  0  0  0  0  0  0  0
   -1.2046    2.0946   -2.7358 C   0  0  0  0  0  0  0  0  0  0  0  0
   -2.5690    1.8313   -2.8241 C   0  0  0  0  0  0  0  0  0  0  0  0
   -3.5152    2.5347   -4.0950 Cl  0  0  0  0  0  0  0  0  0  0  0  0
   -3.2093    0.9985   -1.8929 C   0  0  0  0  0  0  0  0  0  0  0  0
   -4.5871    0.7523   -2.0398 N   0  0  0  0  0  0  0  0  0  0  0  0
   -5.4703    0.0003   -1.2810 C   0  0  0  0  0  0  0  0  0  0  0  0
   -5.1134   -0.6350   -0.1279 C   0  0  0  0  0  0  0  0  0  0  0  0
   -6.0284   -1.3812    0.6221 C   0  0  0  0  0  0  0  0  0  0  0  0
   -7.3209   -1.4879    0.2032 C   0  0  0  0  0  0  0  0  0  0  0  0
   -7.6773   -0.8377   -0.9724 C   0  0  0  0  0  0  0  0  0  0  0  0
   -6.8013   -0.1036   -1.7208 C   0  0  0  0  0  0  0  0  0  0  0  0
   -7.3752    0.6630   -3.1834 S   0  0  0  0  0  0  0  0  0  0  0  0
   -9.1015    0.2896   -3.3921 C   0  0  0  0  0  0  0  0  0  0  0  0
   -6.6485    0.1147   -4.3661 O   0  0  0  0  0  0  0  0  0  0  0  0
   -7.2726    2.1644   -3.1261 O   0  0  0  0  0  0  0  0  0  0  0  0
   -2.4474    0.4980   -0.9557 N   0  0  0  0  0  0  0  0  0  0  0  0
    5.0652    0.2267    1.6430 N   0  0  0  0  0  0  0  0  0  0  0  0
    5.5511   -0.6693    2.6542 C   0  0  0  0  0  0  0  0  0  0  0  0
    7.0057   -0.9683    2.6269 C   0  0  0  0  0  0  0  0  0  0  0  0
    7.8075   -0.2135    1.7219 N   0  0  0  0  0  0  0  0  0  0  0  0
    7.9594   -0.8503    0.4276 C   0  0  0  0  0  0  0  0  0  0  0  0
    7.3211    1.1463    1.5916 C   0  0  0  0  0  0  0  0  0  0  0  0
    5.9355    1.1661    0.9684 C   0  0  0  0  0  0  0  0  0  0  0  0
    1.7168   -2.7411    3.2127 H   0  0  0  0  0  0  0  0  0  0  0  0
    0.1292   -2.5124    3.9765 H   0  0  0  0  0  0  0  0  0  0  0  0
    1.4743   -1.2899    4.3239 H   0  0  0  0  0  0  0  0  0  0  0  0
    3.1141   -1.0368    2.8888 H   0  0  0  0  0  0  0  0  0  0  0  0
    3.9651    1.4610   -0.3925 H   0  0  0  0  0  0  0  0  0  0  0  0
    1.6627    1.4501   -1.0420 H   0  0  0  0  0  0  0  0  0  0  0  0
   -1.0319   -0.5111    0.8889 H   0  0  0  0  0  0  0  0  0  0  0  0
   -0.7392    2.7432   -3.4724 H   0  0  0  0  0  0  0  0  0  0  0  0
   -5.0389    1.2347   -2.8976 H   0  0  0  0  0  0  0  0  0  0  0  0
   -4.1139   -0.5897    0.2585 H   0  0  0  0  0  0  0  0  0  0  0  0
   -5.6951   -1.8707    1.5387 H   0  0  0  0  0  0  0  0  0  0  0  0
   -8.0847   -2.0614    0.7496 H   0  0  0  0  0  0  0  0  0  0  0  0
   -8.7232   -0.9312   -1.3027 H   0  0  0  0  0  0  0  0  0  0  0  0
   -9.2140   -0.8149   -3.2771 H   0  0  0  0  0  0  0  0  0  0  0  0
   -9.7464    0.7932   -2.6606 H   0  0  0  0  0  0  0  0  0  0  0  0
   -9.4187    0.5130   -4.4452 H   0  0  0  0  0  0  0  0  0  0  0  0
    5.3316   -0.1943    3.6488 H   0  0  0  0  0  0  0  0  0  0  0  0
    4.9979   -1.6428    2.6055 H   0  0  0  0  0  0  0  0  0  0  0  0
    7.4746   -0.8783    3.6362 H   0  0  0  0  0  0  0  0  0  0  0  0
    7.1429   -2.0499    2.3444 H   0  0  0  0  0  0  0  0  0  0  0  0
    7.1732   -1.6032    0.2606 H   0  0  0  0  0  0  0  0  0  0  0  0
    8.9406   -1.3825    0.4394 H   0  0  0  0  0  0  0  0  0  0  0  0
    8.0127   -0.0767   -0.3605 H   0  0  0  0  0  0  0  0  0  0  0  0
    7.3006    1.5858    2.6073 H   0  0  0  0  0  0  0  0  0  0  0  0
    7.9893    1.7315    0.9626 H   0  0  0  0  0  0  0  0  0  0  0  0
    6.0414    0.8455   -0.0886 H   0  0  0  0  0  0  0  0  0  0  0  0
    5.5853    2.2156    1.0495 H   0  0  0  0  0  0  0  0  0  0  0  0
  1  2  1  0
  2  3  1  0
  3  4  2  0
  4  5  1  0
  5  6  2  0
  6  7  1  0
  7  8  2  0
  8  9  1  0
  9 10  1  0
 10 11  2  0
 11 12  1  0
 12 13  2  0
 13 14  1  0
 13 15  1  0
 15 16  1  0
 16 17  1  0
 17 18  2  0
 18 19  1  0
 19 20  2  0
 20 21  1  0
 21 22  2  0
 22 23  1  0
 23 24  1  0
 23 25  2  0
 23 26  2  0
 15 27  2  0
  5 28  1  0
 28 29  1  0
 29 30  1  0
 30 31  1  0
 31 32  1  0
 31 33  1  0
 33 34  1  0
  8  3  1  0
 27 10  1  0
 34 28  1  0
 22 17  1  0
  1 35  1  0
  1 36  1  0
  1 37  1  0
  4 38  1  0
  6 39  1  0
  7 40  1  0
  9 41  1  0
 12 42  1  0
 16 43  1  0
 18 44  1  0
 19 45  1  0
 20 46  1  0
 21 47  1  0
 24 48  1  0
 24 49  1  0
 24 50  1  0
 29 51  1  0
 29 52  1  0
 30 53  1  0
 30 54  1  0
 32 55  1  0
 32 56  1  0
 32 57  1  0
 33 58  1  0
 33 59  1  0
 34 60  1  0
 34 61  1  0
M  END
$$$$
[H]OC(=O)C([H])([H])C([H])([H])[C@@]([H])(C(=O)N([H])[C@]([H])(C(=O)N([H])[C@]([H])(C(=O)N([H])[C@]([H])(C(=O)N([H])[C@]([H])(C(=O)O[H])C([H])([H])C(=O)O[H])C([H])([H])C(=O)O[H])C([H])([H])C([H])(C([H])([H])[H])C([H])([H])[H])C([H])([H])C(=O)O[H])N([H])C(=O)[C@@]([H])(N([H])C(=O)[C@@]([H])(N([H])[H])C([H])([H])C([H])(C([H])([H])[H])C([H])([H])[H])C([H])([H])c1c([H])c([H])c([H])c([H])c1[H]
     RDKit          3D

116116  0  0  0  0  0  0  0  0999 V2000
  -10.4083    5.5096    0.3057 C   0  0  0  0  0  0  0  0  0  0  0  0
   -9.2060    4.7112   -0.2657 C   0  0  0  0  0  0  0  0  0  0  0  0
   -8.6329    5.6385   -1.3588 C   0  0  0  0  0  0  0  0  0  0  0  0
   -9.7310    3.4732   -0.8738 C   0  0  0  0  0  0  0  0  0  0  0  0
   -8.7833    2.5119   -1.5021 C   0  0  2  0  0  0  0  0  0  0  0  0
   -9.6132    1.4414   -2.0681 N   0  0  0  0  0  0  0  0  0  0  0  0
   -7.7927    1.9296   -0.6167 C   0  0  0  0  0  0  0  0  0  0  0  0
   -7.2960    2.6387    0.3284 O   0  0  0  0  0  0  0  0  0  0  0  0
   -7.2639    0.5806   -0.6711 N   0  0  0  0  0  0  0  0  0  0  0  0
   -6.3183    0.0701    0.2503 C   0  0  1  0  0  0  0  0  0  0  0  0
   -6.8353   -1.0003    1.1050 C   0  0  0  0  0  0  0  0  0  0  0  0
   -7.3689   -2.2238    0.4771 C   0  0  0  0  0  0  0  0  0  0  0  0
   -8.7321   -2.3833    0.2440 C   0  0  0  0  0  0  0  0  0  0  0  0
   -9.2703   -3.5213   -0.3289 C   0  0  0  0  0  0  0  0  0  0  0  0
   -8.3821   -4.5096   -0.6667 C   0  0  0  0  0  0  0  0  0  0  0  0
   -7.0281   -4.3740   -0.4449 C   0  0  0  0  0  0  0  0  0  0  0  0
   -6.5169   -3.2311    0.1260 C   0  0  0  0  0  0  0  0  0  0  0  0
   -4.8879    0.0962   -0.0902 C   0  0  0  0  0  0  0  0  0  0  0  0
   -4.5466    0.7752   -1.0909 O   0  0  0  0  0  0  0  0  0  0  0  0
   -3.8952   -0.5804    0.6475 N   0  0  0  0  0  0  0  0  0  0  0  0
   -2.5196   -0.5768    0.5188 C   0  0  1  0  0  0  0  0  0  0  0  0
   -1.8820   -0.4594    1.9065 C   0  0  0  0  0  0  0  0  0  0  0  0
   -2.2267   -1.6280    2.7675 C   0  0  0  0  0  0  0  0  0  0  0  0
   -1.5684   -1.5320    4.1003 C   0  0  0  0  0  0  0  0  0  0  0  0
   -1.8194   -2.5698    5.0201 O   0  0  0  0  0  0  0  0  0  0  0  0
   -0.8175   -0.6198    4.4729 O   0  0  0  0  0  0  0  0  0  0  0  0
   -1.7821   -1.7024   -0.1902 C   0  0  0  0  0  0  0  0  0  0  0  0
   -2.4949   -2.3380   -0.9837 O   0  0  0  0  0  0  0  0  0  0  0  0
   -0.4638   -1.9006    0.1189 N   0  0  0  0  0  0  0  0  0  0  0  0
    0.8710   -2.1042    0.4292 C   0  0  1  0  0  0  0  0  0  0  0  0
    1.3172   -3.2523    1.2397 C   0  0  0  0  0  0  0  0  0  0  0  0
    1.1013   -4.6027    0.8134 C   0  0  0  0  0  0  0  0  0  0  0  0
    1.5038   -5.6313    1.6918 O   0  0  0  0  0  0  0  0  0  0  0  0
    0.5941   -4.9605   -0.2607 O   0  0  0  0  0  0  0  0  0  0  0  0
    1.8509   -1.7583   -0.6748 C   0  0  0  0  0  0  0  0  0  0  0  0
    1.4369   -1.7491   -1.8471 O   0  0  0  0  0  0  0  0  0  0  0  0
    3.1721   -1.4489   -0.3107 N   0  0  0  0  0  0  0  0  0  0  0  0
    4.2085   -1.0519   -1.2198 C   0  0  1  0  0  0  0  0  0  0  0  0
    4.2317    0.4520   -1.3961 C   0  0  0  0  0  0  0  0  0  0  0  0
    4.4763    1.2840   -0.2261 C   0  0  0  0  0  0  0  0  0  0  0  0
    4.4207    2.7521   -0.7385 C   0  0  0  0  0  0  0  0  0  0  0  0
    3.5461    1.2224    0.9156 C   0  0  0  0  0  0  0  0  0  0  0  0
    5.5453   -1.5920   -0.9416 C   0  0  0  0  0  0  0  0  0  0  0  0
    5.6448   -2.4866   -0.0439 O   0  0  0  0  0  0  0  0  0  0  0  0
    6.7075   -1.1863   -1.5875 N   0  0  0  0  0  0  0  0  0  0  0  0
    8.0714   -1.5847   -1.4320 C   0  0  1  0  0  0  0  0  0  0  0  0
    8.8439   -1.9919   -2.6091 C   0  0  0  0  0  0  0  0  0  0  0  0
    9.0126   -1.0160   -3.6947 C   0  0  0  0  0  0  0  0  0  0  0  0
    8.3882    0.2136   -3.7354 O   0  0  0  0  0  0  0  0  0  0  0  0
    9.7721   -1.3140   -4.6487 O   0  0  0  0  0  0  0  0  0  0  0  0
    8.7027   -0.5618   -0.5500 C   0  0  0  0  0  0  0  0  0  0  0  0
    7.9652   -0.2602    0.4652 O   0  0  0  0  0  0  0  0  0  0  0  0
    9.9265    0.0636   -0.7052 N   0  0  0  0  0  0  0  0  0  0  0  0
   10.3262    1.0531    0.3469 C   0  0  1  0  0  0  0  0  0  0  0  0
   11.8019    1.0569    0.4922 C   0  0  0  0  0  0  0  0  0  0  0  0
   12.2750    1.9378    1.5765 C   0  0  0  0  0  0  0  0  0  0  0  0
   13.6179    2.2483    1.7119 O   0  0  0  0  0  0  0  0  0  0  0  0
   11.4941    2.4595    2.4361 O   0  0  0  0  0  0  0  0  0  0  0  0
    9.7941    2.3831   -0.1525 C   0  0  0  0  0  0  0  0  0  0  0  0
    9.9559    3.5821    0.5018 O   0  0  0  0  0  0  0  0  0  0  0  0
    9.1458    2.4510   -1.2539 O   0  0  0  0  0  0  0  0  0  0  0  0
  -10.3512    6.5757    0.0372 H   0  0  0  0  0  0  0  0  0  0  0  0
  -11.3628    5.0288   -0.0124 H   0  0  0  0  0  0  0  0  0  0  0  0
  -10.3552    5.4492    1.4165 H   0  0  0  0  0  0  0  0  0  0  0  0
   -8.4361    4.6357    0.5009 H   0  0  0  0  0  0  0  0  0  0  0  0
   -8.1036    6.4452   -0.7927 H   0  0  0  0  0  0  0  0  0  0  0  0
   -7.9625    5.0797   -2.0274 H   0  0  0  0  0  0  0  0  0  0  0  0
   -9.4666    6.1463   -1.9057 H   0  0  0  0  0  0  0  0  0  0  0  0
  -10.4539    3.7757   -1.6931 H   0  0  0  0  0  0  0  0  0  0  0  0
  -10.4023    2.9355   -0.1405 H   0  0  0  0  0  0  0  0  0  0  0  0
   -8.2803    3.0157   -2.3738 H   0  0  0  0  0  0  0  0  0  0  0  0
  -10.5704    1.5375   -1.6755 H   0  0  0  0  0  0  0  0  0  0  0  0
   -9.2225    0.5295   -2.0855 H   0  0  0  0  0  0  0  0  0  0  0  0
   -7.6045   -0.0322   -1.4434 H   0  0  0  0  0  0  0  0  0  0  0  0
   -6.3008    0.9927    1.0579 H   0  0  0  0  0  0  0  0  0  0  0  0
   -6.1976   -1.2538    1.9905 H   0  0  0  0  0  0  0  0  0  0  0  0
   -7.7580   -0.5455    1.6356 H   0  0  0  0  0  0  0  0  0  0  0  0
   -9.4310   -1.6018    0.5155 H   0  0  0  0  0  0  0  0  0  0  0  0
  -10.3532   -3.6245   -0.4947 H   0  0  0  0  0  0  0  0  0  0  0  0
   -8.7773   -5.4235   -1.1207 H   0  0  0  0  0  0  0  0  0  0  0  0
   -6.3521   -5.1975   -0.7413 H   0  0  0  0  0  0  0  0  0  0  0  0
   -5.4366   -3.1705    0.2823 H   0  0  0  0  0  0  0  0  0  0  0  0
   -4.3045   -1.1877    1.4347 H   0  0  0  0  0  0  0  0  0  0  0  0
   -2.1390    0.3253   -0.0561 H   0  0  0  0  0  0  0  0  0  0  0  0
   -2.3997    0.4310    2.3828 H   0  0  0  0  0  0  0  0  0  0  0  0
   -0.8428   -0.1756    1.8342 H   0  0  0  0  0  0  0  0  0  0  0  0
   -2.0294   -2.6240    2.3070 H   0  0  0  0  0  0  0  0  0  0  0  0
   -3.3146   -1.6236    3.0045 H   0  0  0  0  0  0  0  0  0  0  0  0
   -2.4983   -3.3069    4.8235 H   0  0  0  0  0  0  0  0  0  0  0  0
   -0.3836   -2.8825   -0.7952 H   0  0  0  0  0  0  0  0  0  0  0  0
    1.1168   -1.1754    1.1445 H   0  0  0  0  0  0  0  0  0  0  0  0
    2.4276   -3.0768    1.4511 H   0  0  0  0  0  0  0  0  0  0  0  0
    0.8839   -3.0744    2.2878 H   0  0  0  0  0  0  0  0  0  0  0  0
    2.4789   -5.8623    1.8562 H   0  0  0  0  0  0  0  0  0  0  0  0
    3.4369   -1.5122    0.6935 H   0  0  0  0  0  0  0  0  0  0  0  0
    3.8980   -1.4191   -2.2177 H   0  0  0  0  0  0  0  0  0  0  0  0
    4.9378    0.6881   -2.1911 H   0  0  0  0  0  0  0  0  0  0  0  0
    3.2188    0.7051   -1.8058 H   0  0  0  0  0  0  0  0  0  0  0  0
    5.5342    1.2304    0.1759 H   0  0  0  0  0  0  0  0  0  0  0  0
    4.7896    2.7712   -1.7698 H   0  0  0  0  0  0  0  0  0  0  0  0
    3.3109    2.9402   -0.7922 H   0  0  0  0  0  0  0  0  0  0  0  0
    4.8755    3.4351   -0.0335 H   0  0  0  0  0  0  0  0  0  0  0  0
    3.8771    0.5682    1.7482 H   0  0  0  0  0  0  0  0  0  0  0  0
    2.4921    1.0241    0.5986 H   0  0  0  0  0  0  0  0  0  0  0  0
    3.5016    2.2515    1.3938 H   0  0  0  0  0  0  0  0  0  0  0  0
    6.5596   -0.4341   -2.3379 H   0  0  0  0  0  0  0  0  0  0  0  0
    8.0172   -2.5197   -0.7540 H   0  0  0  0  0  0  0  0  0  0  0  0
    9.8599   -2.3436   -2.2441 H   0  0  0  0  0  0  0  0  0  0  0  0
    8.3884   -2.9491   -3.0108 H   0  0  0  0  0  0  0  0  0  0  0  0
    7.6454    0.3346   -4.4483 H   0  0  0  0  0  0  0  0  0  0  0  0
   10.5699   -0.0915   -1.4686 H   0  0  0  0  0  0  0  0  0  0  0  0
    9.8101    0.8348    1.2656 H   0  0  0  0  0  0  0  0  0  0  0  0
   12.2129    0.0472    0.6712 H   0  0  0  0  0  0  0  0  0  0  0  0
   12.3032    1.4409   -0.4512 H   0  0  0  0  0  0  0  0  0  0  0  0
   14.0827    2.9968    1.2682 H   0  0  0  0  0  0  0  0  0  0  0  0
    9.2231    4.1036    0.9411 H   0  0  0  0  0  0  0  0  0  0  0  0
  1  2  1  0
  2  3  1  0
  2  4  1  0
  4  5  1  0
  5  6  1  0
  5  7  1  0
  7  8  2  0
  7  9  1  0
  9 10  1  0
 10 11  1  0
 11 12  1  0
 12 13  2  0
 13 14  1  0
 14 15  2  0
 15 16  1  0
 16 17  2  0
 10 18  1  0
 18 19  2  0
 18 20  1  0
 20 21  1  0
 21 22  1  0
 22 23  1  0
 23 24  1  0
 24 25  1  0
 24 26  2  0
 21 27  1  0
 27 28  2  0
 27 29  1  0
 29 30  1  0
 30 31  1  0
 31 32  1  0
 32 33  1  0
 32 34  2  0
 30 35  1  0
 35 36  2  0
 35 37  1  0
 37 38  1  0
 38 39  1  0
 39 40  1  0
 40 41  1  0
 40 42  1  0
 38 43  1  0
 43 44  2  0
 43 45  1  0
 45 46  1  0
 46 47  1  0
 47 48  1  0
 48 49  1  0
 48 50  2  0
 46 51  1  0
 51 52  2  0
 51 53  1  0
 53 54  1  0
 54 55  1  0
 55 56  1  0
 56 57  1  0
 56 58  2  0
 54 59  1  0
 59 60  1  0
 59 61  2  0
 17 12  1  0
  1 62  1  0
  1 63  1  0
  1 64  1  0
  2 65  1  0
  3 66  1  0
  3 67  1  0
  3 68  1  0
  4 69  1  0
  4 70  1  0
  5 71  1  6
  6 72  1  0
  6 73  1  0
  9 74  1  0
 10 75  1  1
 11 76  1  0
 11 77  1  0
 13 78  1  0
 14 79  1  0
 15 80  1  0
 16 81  1  0
 17 82  1  0
 20 83  1  0
 21 84  1  6
 22 85  1  0
 22 86  1  0
 23 87  1  0
 23 88  1  0
 25 89  1  0
 29 90  1  0
 30 91  1  1
 31 92  1  0
 31 93  1  0
 33 94  1  0
 37 95  1  0
 38 96  1  6
 39 97  1  0
 39 98  1  0
 40 99  1  0
 41100  1  0
 41101  1  0
 41102  1  0
 42103  1  0
 42104  1  0
 42105  1  0
 45106  1  0
 46107  1  1
 47108  1  0
 47109  1  0
 49110  1  0
 53111  1  0
 54112  1  1
 55113  1  0
 55114  1  0
 57115  1  0
 60116  1  0
M  END
$$$$
[H]c1c(Cl)c([H])c2c(C3([H])C([H])([H])C([H])([H])N(C([H])([H])[H])C([H])([H])C3([H])[H])c([H])n([H])c2c1[H]
     RDKit          3D

 34 36  0  0  0  0  0  0  0  0999 V2000
   -4.2076    0.6571   -0.1468 C   0  0  0  0  0  0  0  0  0  0  0  0
   -3.2358   -0.3307   -0.5055 N   0  0  0  0  0  0  0  0  0  0  0  0
   -2.1826    0.2568   -1.3198 C   0  0  0  0  0  0  0  0  0  0  0  0
   -0.9800   -0.5828   -1.3889 C   0  0  0  0  0  0  0  0  0  0  0  0
   -0.2924   -0.9134   -0.0832 C   0  0  0  0  0  0  0  0  0  0  0  0
   -1.3507   -0.8939    1.0275 C   0  0  0  0  0  0  0  0  0  0  0  0
   -2.7459   -1.1332    0.5501 C   0  0  0  0  0  0  0  0  0  0  0  0
    0.7235    0.1787    0.1970 C   0  0  0  0  0  0  0  0  0  0  0  0
    0.5124    1.4602    0.6280 C   0  0  0  0  0  0  0  0  0  0  0  0
    1.7212    2.0313    0.8368 N   0  0  0  0  0  0  0  0  0  0  0  0
    2.6788    1.1536    0.5522 C   0  0  0  0  0  0  0  0  0  0  0  0
    4.0372    1.2129    0.5200 C   0  0  0  0  0  0  0  0  0  0  0  0
    4.8074    0.1257    0.0880 C   0  0  0  0  0  0  0  0  0  0  0  0
    4.1807   -1.0323   -0.3149 C   0  0  0  0  0  0  0  0  0  0  0  0
    5.1351   -2.3930   -0.8990 Cl  0  0  0  0  0  0  0  0  0  0  0  0
    2.7917   -1.1109   -0.2846 C   0  0  0  0  0  0  0  0  0  0  0  0
    2.0783   -0.0067    0.1540 C   0  0  0  0  0  0  0  0  0  0  0  0
   -4.7305    0.3032    0.7547 H   0  0  0  0  0  0  0  0  0  0  0  0
   -3.7316    1.6347    0.1259 H   0  0  0  0  0  0  0  0  0  0  0  0
   -4.9171    0.8038   -1.0042 H   0  0  0  0  0  0  0  0  0  0  0  0
   -2.5970    0.3432   -2.3499 H   0  0  0  0  0  0  0  0  0  0  0  0
   -1.9308    1.2822   -0.9913 H   0  0  0  0  0  0  0  0  0  0  0  0
   -1.1855   -1.5283   -1.9701 H   0  0  0  0  0  0  0  0  0  0  0  0
   -0.2074   -0.0423   -1.9868 H   0  0  0  0  0  0  0  0  0  0  0  0
    0.1993   -1.8615   -0.1236 H   0  0  0  0  0  0  0  0  0  0  0  0
   -1.3421    0.0622    1.6011 H   0  0  0  0  0  0  0  0  0  0  0  0
   -1.1163   -1.6855    1.7567 H   0  0  0  0  0  0  0  0  0  0  0  0
   -3.4281   -1.0074    1.4336 H   0  0  0  0  0  0  0  0  0  0  0  0
   -2.9099   -2.2266    0.2769 H   0  0  0  0  0  0  0  0  0  0  0  0
   -0.4368    1.9499    0.7987 H   0  0  0  0  0  0  0  0  0  0  0  0
    1.8963    2.9961    1.1586 H   0  0  0  0  0  0  0  0  0  0  0  0
    4.5635    2.0983    0.8375 H   0  0  0  0  0  0  0  0  0  0  0  0
    5.8867    0.2160    0.0644 H   0  0  0  0  0  0  0  0  0  0  0  0
    2.3161   -2.0174   -0.5922 H   0  0  0  0  0  0  0  0  0  0  0  0
  1  2  1  0
  2  3  1  0
  3  4  1  0
  4  5  1  0
  5  6  1  0
  6  7  1  0
  5  8  1  0
  8  9  2  0
  9 10  1  0
 10 11  1  0
 11 12  2  0
 12 13  1  0
 13 14  2  0
 14 15  1  0
 14 16  1  0
 16 17  2  0
  7  2  1  0
 17  8  1  0
 17 11  1  0
  1 18  1  0
  1 19  1  0
  1 20  1  0
  3 21  1  0
  3 22  1  0
  4 23  1  0
  4 24  1  0
  5 25  1  0
  6 26  1  0
  6 27  1  0
  7 28  1  0
  7 29  1  0
  9 30  1  0
 10 31  1  0
 12 32  1  0
 13 33  1  0
 16 34  1  0
M  END
$$$$
[H]c1nc(N([H])[H])c(-c2nc3c([H])c([H])c(N4C([H])([H])C([H])([H])N(C([H])([H])[H])C([H])([H])C4([H])[H])c([H])c3n2[H])c([H])c1-c1c([H])nn(C([H])([H])[H])c1[H]
     RDKit          3D

 53 57  0  0  0  0  0  0  0  0999 V2000
    7.1804    1.3074    0.5461 C   0  0  0  0  0  0  0  0  0  0  0  0
    6.7297    0.3995    1.5774 N   0  0  0  0  0  0  0  0  0  0  0  0
    5.5893    0.8534    2.3030 C   0  0  0  0  0  0  0  0  0  0  0  0
    4.2713    0.3758    1.8084 C   0  0  0  0  0  0  0  0  0  0  0  0
    4.3215   -0.5115    0.6848 N   0  0  0  0  0  0  0  0  0  0  0  0
    5.5386   -1.1169    0.1836 C   0  0  0  0  0  0  0  0  0  0  0  0
    6.6815   -0.9626    1.1636 C   0  0  0  0  0  0  0  0  0  0  0  0
    3.1022   -0.8236    0.0159 C   0  0  0  0  0  0  0  0  0  0  0  0
    3.0792   -1.6184   -1.1169 C   0  0  0  0  0  0  0  0  0  0  0  0
    1.9089   -1.9282   -1.7692 C   0  0  0  0  0  0  0  0  0  0  0  0
    0.7199   -1.4355   -1.2853 C   0  0  0  0  0  0  0  0  0  0  0  0
   -0.5695   -1.5587   -1.6951 N   0  0  0  0  0  0  0  0  0  0  0  0
   -1.3958   -0.8818   -0.8845 C   0  0  0  0  0  0  0  0  0  0  0  0
   -0.6058   -0.3249    0.0502 N   0  0  0  0  0  0  0  0  0  0  0  0
    0.6839   -0.6421   -0.1652 C   0  0  0  0  0  0  0  0  0  0  0  0
    1.8808   -0.3562    0.4580 C   0  0  0  0  0  0  0  0  0  0  0  0
   -2.8557   -0.7798   -1.0074 C   0  0  0  0  0  0  0  0  0  0  0  0
   -3.5803   -0.0416   -0.0949 C   0  0  0  0  0  0  0  0  0  0  0  0
   -4.9607    0.0594   -0.2063 C   0  0  0  0  0  0  0  0  0  0  0  0
   -5.5493   -0.6087   -1.2615 C   0  0  0  0  0  0  0  0  0  0  0  0
   -4.8148   -1.3242   -2.1400 N   0  0  0  0  0  0  0  0  0  0  0  0
   -3.4823   -1.4329   -2.0484 C   0  0  0  0  0  0  0  0  0  0  0  0
   -2.7086   -2.1995   -2.9922 N   0  0  0  0  0  0  0  0  0  0  0  0
   -5.7416    0.8358    0.7482 C   0  0  0  0  0  0  0  0  0  0  0  0
   -5.5269    1.0703    2.0904 C   0  0  0  0  0  0  0  0  0  0  0  0
   -6.5338    1.8525    2.5375 N   0  0  0  0  0  0  0  0  0  0  0  0
   -7.3776    2.1308    1.5602 N   0  0  0  0  0  0  0  0  0  0  0  0
   -8.5760    2.9419    1.6611 C   0  0  0  0  0  0  0  0  0  0  0  0
   -6.9067    1.5136    0.4507 C   0  0  0  0  0  0  0  0  0  0  0  0
    7.4312    0.7713   -0.4011 H   0  0  0  0  0  0  0  0  0  0  0  0
    8.1258    1.7690    0.9015 H   0  0  0  0  0  0  0  0  0  0  0  0
    6.4743    2.1506    0.3810 H   0  0  0  0  0  0  0  0  0  0  0  0
    5.6036    1.9768    2.2560 H   0  0  0  0  0  0  0  0  0  0  0  0
    5.7640    0.5914    3.3857 H   0  0  0  0  0  0  0  0  0  0  0  0
    3.5885    1.2378    1.5971 H   0  0  0  0  0  0  0  0  0  0  0  0
    3.7803   -0.1889    2.6529 H   0  0  0  0  0  0  0  0  0  0  0  0
    5.8206   -0.5763   -0.7342 H   0  0  0  0  0  0  0  0  0  0  0  0
    5.3545   -2.2116    0.0006 H   0  0  0  0  0  0  0  0  0  0  0  0
    6.4870   -1.5980    2.0346 H   0  0  0  0  0  0  0  0  0  0  0  0
    7.6080   -1.2043    0.6181 H   0  0  0  0  0  0  0  0  0  0  0  0
    4.0249   -2.0217   -1.5193 H   0  0  0  0  0  0  0  0  0  0  0  0
    1.9188   -2.5602   -2.6646 H   0  0  0  0  0  0  0  0  0  0  0  0
   -0.9271    0.2751    0.8436 H   0  0  0  0  0  0  0  0  0  0  0  0
    1.8245    0.2696    1.3387 H   0  0  0  0  0  0  0  0  0  0  0  0
   -3.1173    0.4838    0.7352 H   0  0  0  0  0  0  0  0  0  0  0  0
   -6.6266   -0.5733   -1.4105 H   0  0  0  0  0  0  0  0  0  0  0  0
   -2.2356   -1.7836   -3.8044 H   0  0  0  0  0  0  0  0  0  0  0  0
   -2.6018   -3.2392   -2.8737 H   0  0  0  0  0  0  0  0  0  0  0  0
   -4.6948    0.6866    2.6636 H   0  0  0  0  0  0  0  0  0  0  0  0
   -8.8799    3.0151    2.7164 H   0  0  0  0  0  0  0  0  0  0  0  0
   -8.4074    3.9210    1.1671 H   0  0  0  0  0  0  0  0  0  0  0  0
   -9.4156    2.4459    1.1028 H   0  0  0  0  0  0  0  0  0  0  0  0
   -7.4017    1.5694   -0.5075 H   0  0  0  0  0  0  0  0  0  0  0  0
  1  2  1  0
  2  3  1  0
  3  4  1  0
  4  5  1  0
  5  6  1  0
  6  7  1  0
  5  8  1  0
  8  9  2  0
  9 10  1  0
 10 11  2  0
 11 12  1  0
 12 13  2  0
 13 14  1  0
 14 15  1  0
 15 16  2  0
 13 17  1  0
 17 18  2  0
 18 19  1  0
 19 20  2  0
 20 21  1  0
 21 22  2  0
 22 23  1  0
 19 24  1  0
 24 25  1  0
 25 26  2  0
 26 27  1  0
 27 28  1  0
 27 29  1  0
  7  2  1  0
 16  8  1  0
 22 17  1  0
 29 24  2  0
 15 11  1  0
  1 30  1  0
  1 31  1  0
  1 32  1  0
  3 33  1  0
  3 34  1  0
  4 35  1  0
  4 36  1  0
  6 37  1  0
  6 38  1  0
  7 39  1  0
  7 40  1  0
  9 41  1  0
 10 42  1  0
 14 43  1  0
 16 44  1  0
 18 45  1  0
 20 46  1  0
 23 47  1  0
 23 48  1  0
 25 49  1  0
 28 50  1  0
 28 51  1  0
 28 52  1  0
 29 53  1  0
M  END
$$$$
[H]c1c([H])c([H])c2c(c1[H])c1c3c(c4c5c([H])c([H])c([H])c([H])c5n5c4c1n2[C@@]1([H])O[C@]5(C([H])([H])[H])[C@]([H])(OC([H])([H])[H])[C@@]([H])(N([H])C([H])([H])[H])C1([H])[H])C([H])([H])N([H])C3=O
     RDKit          3D

 61 68  0  0  0  0  0  0  0  0999 V2000
   -4.4979   -2.4359   -1.6137 C   0  0  0  0  0  0  0  0  0  0  0  0
   -4.0420   -1.0723   -1.4487 N   0  0  0  0  0  0  0  0  0  0  0  0
   -2.9395   -1.0431   -0.5636 C   0  0  1  0  0  0  0  0  0  0  0  0
   -1.7010   -1.7513   -0.9837 C   0  0  0  0  0  0  0  0  0  0  0  0
   -0.8871   -1.8865    0.2994 C   0  0  2  0  0  0  0  0  0  0  0  0
   -1.2464   -1.0505    1.2822 O   0  0  0  0  0  0  0  0  0  0  0  0
   -1.5970    0.2661    0.9775 C   0  0  2  0  0  0  0  0  0  0  0  0
   -2.4182    0.6584    2.2138 C   0  0  0  0  0  0  0  0  0  0  0  0
   -2.4706    0.3831   -0.2259 C   0  0  2  0  0  0  0  0  0  0  0  0
   -3.6066    1.1236   -0.1028 O   0  0  0  0  0  0  0  0  0  0  0  0
   -3.6898    2.1025   -1.0804 C   0  0  0  0  0  0  0  0  0  0  0  0
   -0.3473    1.0050    0.8757 N   0  0  0  0  0  0  0  0  0  0  0  0
   -0.1482    2.3117    1.1332 C   0  0  0  0  0  0  0  0  0  0  0  0
   -0.9824    3.3113    1.5169 C   0  0  0  0  0  0  0  0  0  0  0  0
   -0.5648    4.6300    1.7284 C   0  0  0  0  0  0  0  0  0  0  0  0
    0.7469    4.9627    1.5469 C   0  0  0  0  0  0  0  0  0  0  0  0
    1.6229    3.9675    1.1551 C   0  0  0  0  0  0  0  0  0  0  0  0
    1.1792    2.6704    0.9538 C   0  0  0  0  0  0  0  0  0  0  0  0
    1.8309    1.5420    0.5659 C   0  0  0  0  0  0  0  0  0  0  0  0
    3.1583    1.2849    0.2360 C   0  0  0  0  0  0  0  0  0  0  0  0
    4.2910    2.2366    0.2421 C   0  0  0  0  0  0  0  0  0  0  0  0
    5.4062    1.4511   -0.2105 N   0  0  0  0  0  0  0  0  0  0  0  0
    4.9692    0.0930   -0.4300 C   0  0  0  0  0  0  0  0  0  0  0  0
    5.7896   -0.7599   -0.8034 O   0  0  0  0  0  0  0  0  0  0  0  0
    3.5669    0.0239   -0.1440 C   0  0  0  0  0  0  0  0  0  0  0  0
    2.6327   -0.9821   -0.1906 C   0  0  0  0  0  0  0  0  0  0  0  0
    2.6773   -2.3010   -0.5158 C   0  0  0  0  0  0  0  0  0  0  0  0
    3.6729   -3.1542   -0.9183 C   0  0  0  0  0  0  0  0  0  0  0  0
    3.3412   -4.4813   -1.1682 C   0  0  0  0  0  0  0  0  0  0  0  0
    2.0523   -4.9450   -1.0208 C   0  0  0  0  0  0  0  0  0  0  0  0
    1.0707   -4.0893   -0.6203 C   0  0  0  0  0  0  0  0  0  0  0  0
    1.3715   -2.7695   -0.3659 C   0  0  0  0  0  0  0  0  0  0  0  0
    0.5558   -1.8000    0.0316 N   0  0  0  0  0  0  0  0  0  0  0  0
    1.3106   -0.7030    0.1440 C   0  0  0  0  0  0  0  0  0  0  0  0
    0.9041    0.5581    0.5240 C   0  0  0  0  0  0  0  0  0  0  0  0
   -5.3561   -2.6644   -0.9206 H   0  0  0  0  0  0  0  0  0  0  0  0
   -3.7572   -3.2068   -1.4190 H   0  0  0  0  0  0  0  0  0  0  0  0
   -4.9141   -2.5751   -2.6449 H   0  0  0  0  0  0  0  0  0  0  0  0
   -4.8283   -0.5465   -1.0077 H   0  0  0  0  0  0  0  0  0  0  0  0
   -3.2603   -1.5067    0.4177 H   0  0  0  0  0  0  0  0  0  0  0  0
   -1.1526   -1.0482   -1.6787 H   0  0  0  0  0  0  0  0  0  0  0  0
   -1.8136   -2.6819   -1.5293 H   0  0  0  0  0  0  0  0  0  0  0  0
   -1.0761   -2.9244    0.6483 H   0  0  0  0  0  0  0  0  0  0  0  0
   -1.8156    1.1782    2.9763 H   0  0  0  0  0  0  0  0  0  0  0  0
   -3.3450    1.2175    1.9247 H   0  0  0  0  0  0  0  0  0  0  0  0
   -2.8319   -0.2378    2.7482 H   0  0  0  0  0  0  0  0  0  0  0  0
   -1.8375    0.7213   -1.0871 H   0  0  0  0  0  0  0  0  0  0  0  0
   -4.6333    2.6774   -0.9347 H   0  0  0  0  0  0  0  0  0  0  0  0
   -3.6541    1.6987   -2.1047 H   0  0  0  0  0  0  0  0  0  0  0  0
   -2.8604    2.8173   -0.9507 H   0  0  0  0  0  0  0  0  0  0  0  0
   -2.0083    3.1333    1.6605 H   0  0  0  0  0  0  0  0  0  0  0  0
   -1.2475    5.4071    2.0337 H   0  0  0  0  0  0  0  0  0  0  0  0
    1.1482    5.9489    1.6877 H   0  0  0  0  0  0  0  0  0  0  0  0
    2.6663    4.2107    1.0053 H   0  0  0  0  0  0  0  0  0  0  0  0
    4.1095    3.0328   -0.5035 H   0  0  0  0  0  0  0  0  0  0  0  0
    4.4483    2.6392    1.2664 H   0  0  0  0  0  0  0  0  0  0  0  0
    6.3664    1.8430   -0.3467 H   0  0  0  0  0  0  0  0  0  0  0  0
    4.6891   -2.8870   -1.0566 H   0  0  0  0  0  0  0  0  0  0  0  0
    4.1198   -5.1771   -1.4910 H   0  0  0  0  0  0  0  0  0  0  0  0
    1.7864   -5.9883   -1.2154 H   0  0  0  0  0  0  0  0  0  0  0  0
    0.0464   -4.4380   -0.4978 H   0  0  0  0  0  0  0  0  0  0  0  0
  1  2  1  0
  2  3  1  0
  3  4  1  0
  4  5  1  0
  5  6  1  0
  6  7  1  0
  7  8  1  1
  7  9  1  0
  9 10  1  0
 10 11  1  0
  7 12  1  0
 12 13  1  0
 13 14  2  0
 14 15  1  0
 15 16  2  0
 16 17  1  0
 17 18  2  0
 18 19  1  0
 19 20  2  0
 20 21  1  0
 21 22  1  0
 22 23  1  0
 23 24  2  0
 23 25  1  0
 25 26  2  0
 26 27  1  0
 27 28  2  0
 28 29  1  0
 29 30  2  0
 30 31  1  0
 31 32  2  0
 32 33  1  0
 33 34  1  0
 34 35  2  0
  9  3  1  0
 35 12  1  0
 33  5  1  0
 18 13  1  0
 35 19  1  0
 25 20  1  0
 34 26  1  0
 32 27  1  0
  1 36  1  0
  1 37  1  0
  1 38  1  0
  2 39  1  0
  3 40  1  1
  4 41  1  0
  4 42  1  0
  5 43  1  1
  8 44  1  0
  8 45  1  0
  8 46  1  0
  9 47  1  6
 11 48  1  0
 11 49  1  0
 11 50  1  0
 14 51  1  0
 15 52  1  0
 16 53  1  0
 17 54  1  0
 21 55  1  0
 21 56  1  0
 22 57  1  0
 28 58  1  0
 29 59  1  0
 30 60  1  0
 31 61  1  0
M  END
$$$$
[H]c1c([H])c([H])c2c(c1[H])c(C([H])([H])[C@]1([H])C(=O)N([H])[C@@]([H])([C@@]([H])(C([H])([H])[H])C([H])([H])C([H])([H])[H])C(=O)N3C([H])([H])C([H])([H])C([H])([H])[C@@]3([H])C(=O)N1[H])c([H])n2[H]
     RDKit          3D

 57 60  0  0  0  0  0  0  0  0999 V2000
   -3.0971    3.2927    2.0206 C   0  0  0  0  0  0  0  0  0  0  0  0
   -3.5576    3.3241    0.5813 C   0  0  0  0  0  0  0  0  0  0  0  0
   -3.4253    2.0003   -0.0878 C   0  0  2  0  0  0  0  0  0  0  0  0
   -4.2907    1.0098    0.6994 C   0  0  0  0  0  0  0  0  0  0  0  0
   -2.0327    1.4457   -0.1142 C   0  0  2  0  0  0  0  0  0  0  0  0
   -1.1204    2.3276   -0.8145 N   0  0  0  0  0  0  0  0  0  0  0  0
    0.0591    1.9149   -1.4419 C   0  0  0  0  0  0  0  0  0  0  0  0
    0.5162    2.5840   -2.4053 O   0  0  0  0  0  0  0  0  0  0  0  0
    0.8289    0.6924   -1.0230 C   0  0  1  0  0  0  0  0  0  0  0  0
    2.2417    0.8783   -1.4611 C   0  0  0  0  0  0  0  0  0  0  0  0
    3.1818   -0.1836   -1.1560 C   0  0  0  0  0  0  0  0  0  0  0  0
    3.5574   -1.1992   -2.0423 C   0  0  0  0  0  0  0  0  0  0  0  0
    4.4122   -2.0247   -1.4271 N   0  0  0  0  0  0  0  0  0  0  0  0
    4.6293   -1.6105   -0.1672 C   0  0  0  0  0  0  0  0  0  0  0  0
    5.4216   -2.1096    0.8514 C   0  0  0  0  0  0  0  0  0  0  0  0
    5.4500   -1.4515    2.0574 C   0  0  0  0  0  0  0  0  0  0  0  0
    4.7067   -0.3047    2.2750 C   0  0  0  0  0  0  0  0  0  0  0  0
    3.9300    0.1633    1.2406 C   0  0  0  0  0  0  0  0  0  0  0  0
    3.8590   -0.4534    0.0085 C   0  0  0  0  0  0  0  0  0  0  0  0
    0.6357    0.3963    0.3709 N   0  0  0  0  0  0  0  0  0  0  0  0
    0.1001   -0.7668    0.9385 C   0  0  0  0  0  0  0  0  0  0  0  0
    0.6217   -1.1239    2.0578 O   0  0  0  0  0  0  0  0  0  0  0  0
   -0.9595   -1.6304    0.4488 C   0  0  2  0  0  0  0  0  0  0  0  0
   -0.4284   -2.8334   -0.3454 C   0  0  0  0  0  0  0  0  0  0  0  0
   -1.7217   -3.3458   -0.9428 C   0  0  0  0  0  0  0  0  0  0  0  0
   -2.7575   -2.2848   -0.7879 C   0  0  0  0  0  0  0  0  0  0  0  0
   -1.9276   -1.1062   -0.4463 N   0  0  0  0  0  0  0  0  0  0  0  0
   -2.0964    0.1948   -0.9159 C   0  0  0  0  0  0  0  0  0  0  0  0
   -2.3314    0.3516   -2.1632 O   0  0  0  0  0  0  0  0  0  0  0  0
   -2.8927    2.2545    2.3530 H   0  0  0  0  0  0  0  0  0  0  0  0
   -3.8684    3.6974    2.7193 H   0  0  0  0  0  0  0  0  0  0  0  0
   -2.2040    3.9447    2.0946 H   0  0  0  0  0  0  0  0  0  0  0  0
   -3.1137    4.1664    0.0097 H   0  0  0  0  0  0  0  0  0  0  0  0
   -4.6618    3.5525    0.6149 H   0  0  0  0  0  0  0  0  0  0  0  0
   -3.8757    2.0659   -1.1002 H   0  0  0  0  0  0  0  0  0  0  0  0
   -5.1557    1.5628    1.0796 H   0  0  0  0  0  0  0  0  0  0  0  0
   -3.6910    0.5341    1.5143 H   0  0  0  0  0  0  0  0  0  0  0  0
   -4.6220    0.1786    0.0470 H   0  0  0  0  0  0  0  0  0  0  0  0
   -1.7382    1.2560    0.9355 H   0  0  0  0  0  0  0  0  0  0  0  0
   -1.3690    3.3390   -0.8484 H   0  0  0  0  0  0  0  0  0  0  0  0
    0.4615   -0.2044   -1.5773 H   0  0  0  0  0  0  0  0  0  0  0  0
    2.2573    1.0553   -2.5796 H   0  0  0  0  0  0  0  0  0  0  0  0
    2.6379    1.8679   -1.0699 H   0  0  0  0  0  0  0  0  0  0  0  0
    3.1963   -1.2805   -3.0630 H   0  0  0  0  0  0  0  0  0  0  0  0
    4.8519   -2.8647   -1.8435 H   0  0  0  0  0  0  0  0  0  0  0  0
    6.0154   -2.9999    0.7215 H   0  0  0  0  0  0  0  0  0  0  0  0
    6.0790   -1.8614    2.8425 H   0  0  0  0  0  0  0  0  0  0  0  0
    4.7221    0.2157    3.2102 H   0  0  0  0  0  0  0  0  0  0  0  0
    3.3476    1.0643    1.3746 H   0  0  0  0  0  0  0  0  0  0  0  0
    0.9498    1.1803    1.0270 H   0  0  0  0  0  0  0  0  0  0  0  0
   -1.5271   -2.1062    1.2825 H   0  0  0  0  0  0  0  0  0  0  0  0
    0.2327   -2.5491   -1.1623 H   0  0  0  0  0  0  0  0  0  0  0  0
   -0.0112   -3.6037    0.3316 H   0  0  0  0  0  0  0  0  0  0  0  0
   -1.6159   -3.6913   -1.9826 H   0  0  0  0  0  0  0  0  0  0  0  0
   -2.0709   -4.2451   -0.3549 H   0  0  0  0  0  0  0  0  0  0  0  0
   -3.2951   -2.1672   -1.7258 H   0  0  0  0  0  0  0  0  0  0  0  0
   -3.4445   -2.5096    0.0796 H   0  0  0  0  0  0  0  0  0  0  0  0
  1  2  1  0
  2  3  1  0
  3  4  1  0
  3  5  1  0
  5  6  1  0
  6  7  1  0
  7  8  2  0
  7  9  1  0
  9 10  1  0
 10 11  1  0
 11 12  2  0
 12 13  1  0
 13 14  1  0
 14 15  2  0
 15 16  1  0
 16 17  2  0
 17 18  1  0
 18 19  2  0
  9 20  1  0
 20 21  1  0
 21 22  2  0
 21 23  1  0
 23 24  1  0
 24 25  1  0
 25 26  1  0
 26 27  1  0
 27 28  1  0
 28 29  2  0
 28  5  1  0
 19 11  1  0
 27 23  1  0
 19 14  1  0
  1 30  1  0
  1 31  1  0
  1 32  1  0
  2 33  1  0
  2 34  1  0
  3 35  1  6
  4 36  1  0
  4 37  1  0
  4 38  1  0
  5 39  1  1
  6 40  1  0
  9 41  1  6
 10 42  1  0
 10 43  1  0
 12 44  1  0
 13 45  1  0
 15 46  1  0
 16 47  1  0
 17 48  1  0
 18 49  1  0
 20 50  1  0
 23 51  1  1
 24 52  1  0
 24 53  1  0
 25 54  1  0
 25 55  1  0
 26 56  1  0
 26 57  1  0
M  END
$$$$
[H]O[C@]1([H])[C@]([H])(n2c([H])nc3c(N([H])[H])nc([H])nc32)O[C@]([H])(n2c([H])nc3c(N([H])[H])nc([H])nc32)[C@]1([H])O[H]
     RDKit          3D

 41 45  0  0  0  0  0  0  0  0999 V2000
   -5.5883    1.8132    1.7223 N   0  0  0  0  0  0  0  0  0  0  0  0
   -4.5447    0.8781    1.6774 C   0  0  0  0  0  0  0  0  0  0  0  0
   -4.2138    0.0843    2.7245 N   0  0  0  0  0  0  0  0  0  0  0  0
   -3.2046   -0.8014    2.6416 C   0  0  0  0  0  0  0  0  0  0  0  0
   -2.5215   -0.8877    1.4900 N   0  0  0  0  0  0  0  0  0  0  0  0
   -2.8046   -0.1173    0.3995 C   0  0  0  0  0  0  0  0  0  0  0  0
   -2.2718   -0.0306   -0.8273 N   0  0  0  0  0  0  0  0  0  0  0  0
   -2.9489    0.9044   -1.4986 C   0  0  0  0  0  0  0  0  0  0  0  0
   -3.9047    1.4051   -0.6986 N   0  0  0  0  0  0  0  0  0  0  0  0
   -3.8340    0.7874    0.4814 C   0  0  0  0  0  0  0  0  0  0  0  0
   -1.1669   -0.8316   -1.2779 C   0  0  2  0  0  0  0  0  0  0  0  0
   -0.1147   -0.8597   -0.3940 O   0  0  0  0  0  0  0  0  0  0  0  0
    1.0415   -1.1651   -1.1305 C   0  0  1  0  0  0  0  0  0  0  0  0
    0.7084   -1.1453   -2.5465 C   0  0  2  0  0  0  0  0  0  0  0  0
    1.6312   -0.8186   -3.4612 O   0  0  0  0  0  0  0  0  0  0  0  0
   -0.5383   -0.2482   -2.5529 C   0  0  2  0  0  0  0  0  0  0  0  0
   -0.2516    1.0689   -2.3044 O   0  0  0  0  0  0  0  0  0  0  0  0
    2.1282   -0.3523   -0.6854 N   0  0  0  0  0  0  0  0  0  0  0  0
    2.8113    0.6366   -1.2340 C   0  0  0  0  0  0  0  0  0  0  0  0
    3.7706    1.1108   -0.4185 N   0  0  0  0  0  0  0  0  0  0  0  0
    3.6944    0.3940    0.6945 C   0  0  0  0  0  0  0  0  0  0  0  0
    4.4304    0.4329    1.8836 C   0  0  0  0  0  0  0  0  0  0  0  0
    5.4772    1.3970    1.9988 N   0  0  0  0  0  0  0  0  0  0  0  0
    4.1391   -0.4318    2.8860 N   0  0  0  0  0  0  0  0  0  0  0  0
    3.1411   -1.3228    2.7273 C   0  0  0  0  0  0  0  0  0  0  0  0
    2.4365   -1.3521    1.5751 N   0  0  0  0  0  0  0  0  0  0  0  0
    2.6781   -0.5257    0.5543 C   0  0  0  0  0  0  0  0  0  0  0  0
   -6.2933    1.8480    0.9694 H   0  0  0  0  0  0  0  0  0  0  0  0
   -5.6504    2.4736    2.5187 H   0  0  0  0  0  0  0  0  0  0  0  0
   -2.9856   -1.4087    3.5093 H   0  0  0  0  0  0  0  0  0  0  0  0
   -2.7794    1.2356   -2.5369 H   0  0  0  0  0  0  0  0  0  0  0  0
   -1.4974   -1.8553   -1.5536 H   0  0  0  0  0  0  0  0  0  0  0  0
    1.2897   -2.2273   -0.8283 H   0  0  0  0  0  0  0  0  0  0  0  0
    0.2902   -2.1582   -2.8378 H   0  0  0  0  0  0  0  0  0  0  0  0
    1.5479   -1.3198   -4.3130 H   0  0  0  0  0  0  0  0  0  0  0  0
   -1.1673   -0.4249   -3.4292 H   0  0  0  0  0  0  0  0  0  0  0  0
   -0.2963    1.3381   -1.3668 H   0  0  0  0  0  0  0  0  0  0  0  0
    2.6406    1.0323   -2.2107 H   0  0  0  0  0  0  0  0  0  0  0  0
    5.3425    2.4109    1.8650 H   0  0  0  0  0  0  0  0  0  0  0  0
    6.4369    1.0272    2.2355 H   0  0  0  0  0  0  0  0  0  0  0  0
    2.9422   -1.9942    3.5522 H   0  0  0  0  0  0  0  0  0  0  0  0
  1  2  1  0
  2  3  2  0
  3  4  1  0
  4  5  2  0
  5  6  1  0
  6  7  1  0
  7  8  1  0
  8  9  2  0
  9 10  1  0
  7 11  1  0
 11 12  1  0
 12 13  1  0
 13 14  1  0
 14 15  1  0
 14 16  1  0
 16 17  1  0
 13 18  1  0
 18 19  1  0
 19 20  2  0
 20 21  1  0
 21 22  2  0
 22 23  1  0
 22 24  1  0
 24 25  2  0
 25 26  1  0
 26 27  2  0
 10  2  1  0
 16 11  1  0
 27 18  1  0
 10  6  2  0
 27 21  1  0
  1 28  1  0
  1 29  1  0
  4 30  1  0
  8 31  1  0
 11 32  1  6
 13 33  1  1
 14 34  1  6
 15 35  1  0
 16 36  1  6
 17 37  1  0
 19 38  1  0
 23 39  1  0
 23 40  1  0
 25 41  1  0
M  END
$$$$
[H]c1nc(N([H])c2c([H])c([H])c(N3C([H])([H])C([H])([H])N(C(=O)OC(C([H])([H])[H])(C([H])([H])[H])C([H])([H])[H])C([H])([H])C3([H])[H])c([H])c2OC([H])([H])[H])nc(N([H])c2c([H])c([H])c([H])c([H])c2C(=O)N([H])[H])c1Cl
     RDKit          3D

 71 74  0  0  0  0  0  0  0  0999 V2000
   -1.1666    3.4521    1.5281 C   0  0  0  0  0  0  0  0  0  0  0  0
   -1.6226    2.2648    0.9423 O   0  0  0  0  0  0  0  0  0  0  0  0
   -0.7841    1.3592    0.3202 C   0  0  0  0  0  0  0  0  0  0  0  0
    0.5401    1.6443    0.2815 C   0  0  0  0  0  0  0  0  0  0  0  0
    1.4343    0.7916   -0.3199 C   0  0  0  0  0  0  0  0  0  0  0  0
    0.9171   -0.3567   -0.8755 C   0  0  0  0  0  0  0  0  0  0  0  0
   -0.4466   -0.6395   -0.8298 C   0  0  0  0  0  0  0  0  0  0  0  0
   -1.3499    0.1982   -0.2352 C   0  0  0  0  0  0  0  0  0  0  0  0
   -2.7317    0.0170   -0.1307 N   0  0  0  0  0  0  0  0  0  0  0  0
   -3.4765   -1.0692   -0.6157 C   0  0  0  0  0  0  0  0  0  0  0  0
   -3.0143   -2.1354   -1.2679 N   0  0  0  0  0  0  0  0  0  0  0  0
   -3.7711   -3.1438   -1.7076 C   0  0  0  0  0  0  0  0  0  0  0  0
   -5.1313   -3.1386   -1.5030 C   0  0  0  0  0  0  0  0  0  0  0  0
   -6.1085   -4.4657   -2.0845 Cl  0  0  0  0  0  0  0  0  0  0  0  0
   -5.6667   -2.0348   -0.8195 C   0  0  0  0  0  0  0  0  0  0  0  0
   -7.0693   -2.0455   -0.5873 N   0  0  0  0  0  0  0  0  0  0  0  0
   -7.8734   -1.0983    0.0282 C   0  0  0  0  0  0  0  0  0  0  0  0
   -7.4589    0.2074    0.1557 C   0  0  0  0  0  0  0  0  0  0  0  0
   -8.2490    1.2197    0.6805 C   0  0  0  0  0  0  0  0  0  0  0  0
   -9.5164    0.9261    1.1010 C   0  0  0  0  0  0  0  0  0  0  0  0
   -9.9591   -0.3600    0.9892 C   0  0  0  0  0  0  0  0  0  0  0  0
   -9.1473   -1.3771    0.4568 C   0  0  0  0  0  0  0  0  0  0  0  0
   -9.7019   -2.6911    0.4583 C   0  0  0  0  0  0  0  0  0  0  0  0
  -11.0712   -2.8785    0.8872 N   0  0  0  0  0  0  0  0  0  0  0  0
   -9.1283   -3.7218    0.1239 O   0  0  0  0  0  0  0  0  0  0  0  0
   -4.8306   -1.0786   -0.4201 N   0  0  0  0  0  0  0  0  0  0  0  0
    2.8275    1.0896   -0.3566 N   0  0  0  0  0  0  0  0  0  0  0  0
    3.6919    0.1858   -1.0874 C   0  0  0  0  0  0  0  0  0  0  0  0
    5.0182    0.8423   -1.4325 C   0  0  0  0  0  0  0  0  0  0  0  0
    5.5519    1.3200   -0.1634 N   0  0  0  0  0  0  0  0  0  0  0  0
    4.7871    2.2806    0.5643 C   0  0  0  0  0  0  0  0  0  0  0  0
    3.3106    2.2459    0.3196 C   0  0  0  0  0  0  0  0  0  0  0  0
    6.7840    0.8596    0.3473 C   0  0  0  0  0  0  0  0  0  0  0  0
    7.2195    1.2790    1.4298 O   0  0  0  0  0  0  0  0  0  0  0  0
    7.5113   -0.0752   -0.3782 O   0  0  0  0  0  0  0  0  0  0  0  0
    8.7485   -0.5984    0.0411 C   0  0  0  0  0  0  0  0  0  0  0  0
    8.6405   -1.3156    1.3714 C   0  0  0  0  0  0  0  0  0  0  0  0
    9.8119    0.4745    0.1444 C   0  0  0  0  0  0  0  0  0  0  0  0
    9.1904   -1.6036   -1.0053 C   0  0  0  0  0  0  0  0  0  0  0  0
   -2.0585    4.1093    1.7321 H   0  0  0  0  0  0  0  0  0  0  0  0
   -0.5244    3.3193    2.3982 H   0  0  0  0  0  0  0  0  0  0  0  0
   -0.5742    4.0056    0.7491 H   0  0  0  0  0  0  0  0  0  0  0  0
    0.9078    2.5654    0.7318 H   0  0  0  0  0  0  0  0  0  0  0  0
    1.6069   -1.0626   -1.3656 H   0  0  0  0  0  0  0  0  0  0  0  0
   -0.7519   -1.5582   -1.2905 H   0  0  0  0  0  0  0  0  0  0  0  0
   -3.2825    0.7829    0.3696 H   0  0  0  0  0  0  0  0  0  0  0  0
   -3.3505   -4.0013   -2.2394 H   0  0  0  0  0  0  0  0  0  0  0  0
   -7.5568   -2.9046   -0.9929 H   0  0  0  0  0  0  0  0  0  0  0  0
   -6.4912    0.5344   -0.1607 H   0  0  0  0  0  0  0  0  0  0  0  0
   -7.8879    2.2185    0.7620 H   0  0  0  0  0  0  0  0  0  0  0  0
  -10.1794    1.7037    1.5244 H   0  0  0  0  0  0  0  0  0  0  0  0
  -10.9712   -0.5832    1.3272 H   0  0  0  0  0  0  0  0  0  0  0  0
  -11.6849   -3.3955    0.2054 H   0  0  0  0  0  0  0  0  0  0  0  0
  -11.4151   -2.5262    1.8008 H   0  0  0  0  0  0  0  0  0  0  0  0
    3.2368   -0.0795   -2.0874 H   0  0  0  0  0  0  0  0  0  0  0  0
    3.8843   -0.7246   -0.4826 H   0  0  0  0  0  0  0  0  0  0  0  0
    5.6503    0.0756   -1.8995 H   0  0  0  0  0  0  0  0  0  0  0  0
    4.8105    1.7142   -2.0898 H   0  0  0  0  0  0  0  0  0  0  0  0
    5.1409    3.2984    0.2215 H   0  0  0  0  0  0  0  0  0  0  0  0
    5.0478    2.2835    1.6641 H   0  0  0  0  0  0  0  0  0  0  0  0
    2.9473    3.1398   -0.2659 H   0  0  0  0  0  0  0  0  0  0  0  0
    2.8290    2.3663    1.3345 H   0  0  0  0  0  0  0  0  0  0  0  0
    9.4188   -2.1213    1.3960 H   0  0  0  0  0  0  0  0  0  0  0  0
    8.7985   -0.6634    2.2309 H   0  0  0  0  0  0  0  0  0  0  0  0
    7.6597   -1.8503    1.3870 H   0  0  0  0  0  0  0  0  0  0  0  0
    9.4931    1.3819   -0.3831 H   0  0  0  0  0  0  0  0  0  0  0  0
    9.8977    0.7467    1.2259 H   0  0  0  0  0  0  0  0  0  0  0  0
   10.7517    0.1000   -0.2802 H   0  0  0  0  0  0  0  0  0  0  0  0
    8.8781   -2.6336   -0.7687 H   0  0  0  0  0  0  0  0  0  0  0  0
    8.7556   -1.3503   -1.9951 H   0  0  0  0  0  0  0  0  0  0  0  0
   10.3043   -1.5595   -1.1098 H   0  0  0  0  0  0  0  0  0  0  0  0
  1  2  1  0
  2  3  1  0
  3  4  2  0
  4  5  1  0
  5  6  2  0
  6  7  1  0
  7  8  2  0
  8  9  1  0
  9 10  1  0
 10 11  2  0
 11 12  1  0
 12 13  2  0
 13 14  1  0
 13 15  1  0
 15 16  1  0
 16 17  1  0
 17 18  2  0
 18 19  1  0
 19 20  2  0
 20 21  1  0
 21 22  2  0
 22 23  1  0
 23 24  1  0
 23 25  2  0
 15 26  2  0
  5 27  1  0
 27 28  1  0
 28 29  1  0
 29 30  1  0
 30 31  1  0
 31 32  1  0
 30 33  1  0
 33 34  2  0
 33 35  1  0
 35 36  1  0
 36 37  1  0
 36 38  1  0
 36 39  1  0
  8  3  1  0
 26 10  1  0
 32 27  1  0
 22 17  1  0
  1 40  1  0
  1 41  1  0
  1 42  1  0
  4 43  1  0
  6 44  1  0
  7 45  1  0
  9 46  1  0
 12 47  1  0
 16 48  1  0
 18 49  1  0
 19 50  1  0
 20 51  1  0
 21 52  1  0
 24 53  1  0
 24 54  1  0
 28 55  1  0
 28 56  1  0
 29 57  1  0
 29 58  1  0
 31 59  1  0
 31 60  1  0
 32 61  1  0
 32 62  1  0
 37 63  1  0
 37 64  1  0
 37 65  1  0
 38 66  1  0
 38 67  1  0
 38 68  1  0
 39 69  1  0
 39 70  1  0
 39 71  1  0
M  END
$$$$
[H]OC(=O)C([H])([H])[C@@]([H])(C(=O)N([H])[C@]([H])(C(=O)N1C([H])([H])C([H])([H])C([H])([H])[C@@]1([H])C(=O)N([H])[C@@]([H])(C(=O)C([H])([H])[H])C([H])([H])[H])C([H])([H])c1c([H])c([H])c([H])c([H])c1[H])N([H])C(=O)[C@@]([H])(N([H])C(=O)[C@]([H])(N([H])C(=O)[C@@]([H])(N([H])C(=O)[C@]([H])(N([H])C(=O)[C@@]([H])(N([H])C(=O)C([H])([H])[H])C([H])([H])[H])C([H])([H])[H])C([H])([H])c1c([H])c([H])c([H])c([H])c1[H])C([H])([H])[H])C([H])([H])c1c([H])c([H])c([H])c([H])c1[H]
     RDKit          3D

137140  0  0  0  0  0  0  0  0999 V2000
   13.8901    2.4219    1.4174 C   0  0  0  0  0  0  0  0  0  0  0  0
   12.6078    1.5973    1.4853 C   0  0  1  0  0  0  0  0  0  0  0  0
   11.8361    1.7712    0.2756 N   0  0  0  0  0  0  0  0  0  0  0  0
   10.5097    2.2322    0.3462 C   0  0  0  0  0  0  0  0  0  0  0  0
    9.9731    2.4833    1.4269 O   0  0  0  0  0  0  0  0  0  0  0  0
    9.7558    2.4180   -0.9451 C   0  0  2  0  0  0  0  0  0  0  0  0
   10.4785    3.5127   -1.7599 C   0  0  0  0  0  0  0  0  0  0  0  0
    9.4168    4.5790   -1.8585 C   0  0  0  0  0  0  0  0  0  0  0  0
    8.7563    4.4304   -0.4794 C   0  0  0  0  0  0  0  0  0  0  0  0
    8.4684    2.9526   -0.6244 N   0  0  0  0  0  0  0  0  0  0  0  0
    7.2188    2.3790   -0.4878 C   0  0  0  0  0  0  0  0  0  0  0  0
    6.2860    3.2640   -0.1640 O   0  0  0  0  0  0  0  0  0  0  0  0
    6.7387    0.9992   -0.6359 C   0  0  2  0  0  0  0  0  0  0  0  0
    7.5798    0.0708   -1.4087 C   0  0  0  0  0  0  0  0  0  0  0  0
    7.0072   -1.2987   -1.5462 C   0  0  0  0  0  0  0  0  0  0  0  0
    6.1490   -1.6267   -2.5694 C   0  0  0  0  0  0  0  0  0  0  0  0
    5.6824   -2.9286   -2.6498 C   0  0  0  0  0  0  0  0  0  0  0  0
    6.0292   -3.9175   -1.7601 C   0  0  0  0  0  0  0  0  0  0  0  0
    6.9067   -3.5674   -0.7202 C   0  0  0  0  0  0  0  0  0  0  0  0
    7.3674   -2.2711   -0.6442 C   0  0  0  0  0  0  0  0  0  0  0  0
    5.3322    1.0023   -1.1118 N   0  0  0  0  0  0  0  0  0  0  0  0
    4.2426    0.6427   -0.3057 C   0  0  0  0  0  0  0  0  0  0  0  0
    4.5401    0.2841    0.9062 O   0  0  0  0  0  0  0  0  0  0  0  0
    2.8660    0.6381   -0.6964 C   0  0  2  0  0  0  0  0  0  0  0  0
    2.3066    2.0035   -1.0738 C   0  0  0  0  0  0  0  0  0  0  0  0
    2.9759    2.5827   -2.2194 C   0  0  0  0  0  0  0  0  0  0  0  0
    2.8373    1.9415   -3.4593 O   0  0  0  0  0  0  0  0  0  0  0  0
    3.6555    3.6095   -2.1526 O   0  0  0  0  0  0  0  0  0  0  0  0
    1.9426    0.0453    0.2899 N   0  0  0  0  0  0  0  0  0  0  0  0
    0.7704   -0.6271   -0.0936 C   0  0  0  0  0  0  0  0  0  0  0  0
    0.5864   -0.6569   -1.3814 O   0  0  0  0  0  0  0  0  0  0  0  0
   -0.2366   -1.2709    0.7038 C   0  0  2  0  0  0  0  0  0  0  0  0
    0.0545   -2.7273    1.0672 C   0  0  0  0  0  0  0  0  0  0  0  0
    1.2675   -2.9454    1.8411 C   0  0  0  0  0  0  0  0  0  0  0  0
    1.3177   -2.8704    3.2208 C   0  0  0  0  0  0  0  0  0  0  0  0
    2.4766   -3.1262    3.8685 C   0  0  0  0  0  0  0  0  0  0  0  0
    3.6469   -3.4704    3.1828 C   0  0  0  0  0  0  0  0  0  0  0  0
    3.5969   -3.5448    1.8090 C   0  0  0  0  0  0  0  0  0  0  0  0
    2.4128   -3.2824    1.1514 C   0  0  0  0  0  0  0  0  0  0  0  0
   -1.4693   -1.4089   -0.1274 N   0  0  0  0  0  0  0  0  0  0  0  0
   -2.7273   -1.4226    0.4725 C   0  0  0  0  0  0  0  0  0  0  0  0
   -2.8340   -1.3247    1.7391 O   0  0  0  0  0  0  0  0  0  0  0  0
   -3.9585   -1.5583   -0.2994 C   0  0  1  0  0  0  0  0  0  0  0  0
   -3.8891   -2.7487   -1.2621 C   0  0  0  0  0  0  0  0  0  0  0  0
   -5.1023   -1.6755    0.5702 N   0  0  0  0  0  0  0  0  0  0  0  0
   -6.4163   -1.2969    0.2107 C   0  0  0  0  0  0  0  0  0  0  0  0
   -6.5768   -0.8423   -0.9662 O   0  0  0  0  0  0  0  0  0  0  0  0
   -7.5341   -1.4242    1.1695 C   0  0  2  0  0  0  0  0  0  0  0  0
   -7.6067   -2.7885    1.8252 C   0  0  0  0  0  0  0  0  0  0  0  0
   -7.7958   -3.9242    0.9387 C   0  0  0  0  0  0  0  0  0  0  0  0
   -9.0720   -4.2503    0.5538 C   0  0  0  0  0  0  0  0  0  0  0  0
   -9.2925   -5.3307   -0.2729 C   0  0  0  0  0  0  0  0  0  0  0  0
   -8.2451   -6.0807   -0.7108 C   0  0  0  0  0  0  0  0  0  0  0  0
   -6.9585   -5.7739   -0.3352 C   0  0  0  0  0  0  0  0  0  0  0  0
   -6.7390   -4.6804    0.5000 C   0  0  0  0  0  0  0  0  0  0  0  0
   -8.7983   -0.9955    0.6817 N   0  0  0  0  0  0  0  0  0  0  0  0
   -9.3700    0.2514    1.0247 C   0  0  0  0  0  0  0  0  0  0  0  0
   -8.7134    1.0222    1.7684 O   0  0  0  0  0  0  0  0  0  0  0  0
  -10.6912    0.6771    0.5495 C   0  0  1  0  0  0  0  0  0  0  0  0
  -11.7439   -0.2332    1.2743 C   0  0  0  0  0  0  0  0  0  0  0  0
  -11.0044    2.0539    0.8702 N   0  0  0  0  0  0  0  0  0  0  0  0
  -11.8906    2.7838    0.0103 C   0  0  0  0  0  0  0  0  0  0  0  0
  -12.3795    2.2050   -0.9751 O   0  0  0  0  0  0  0  0  0  0  0  0
  -12.2107    4.1974    0.3040 C   0  0  2  0  0  0  0  0  0  0  0  0
  -11.8845    4.5793    1.7032 C   0  0  0  0  0  0  0  0  0  0  0  0
  -13.5290    4.5708   -0.1501 N   0  0  0  0  0  0  0  0  0  0  0  0
  -13.7512    5.4159   -1.2982 C   0  0  0  0  0  0  0  0  0  0  0  0
  -15.1188    5.7569   -1.7173 C   0  0  0  0  0  0  0  0  0  0  0  0
  -12.7584    5.8462   -1.9196 O   0  0  0  0  0  0  0  0  0  0  0  0
   12.9269    0.1612    1.6587 C   0  0  0  0  0  0  0  0  0  0  0  0
   13.7723   -0.2166    2.8460 C   0  0  0  0  0  0  0  0  0  0  0  0
   12.5159   -0.6523    0.8656 O   0  0  0  0  0  0  0  0  0  0  0  0
   14.3175    2.4915    2.4177 H   0  0  0  0  0  0  0  0  0  0  0  0
   13.5940    3.4316    1.0647 H   0  0  0  0  0  0  0  0  0  0  0  0
   14.5738    2.0159    0.6368 H   0  0  0  0  0  0  0  0  0  0  0  0
   11.9983    1.8938    2.3628 H   0  0  0  0  0  0  0  0  0  0  0  0
   12.3008    1.5420   -0.6466 H   0  0  0  0  0  0  0  0  0  0  0  0
    9.7939    1.5488   -1.5913 H   0  0  0  0  0  0  0  0  0  0  0  0
   11.2826    3.9308   -1.1147 H   0  0  0  0  0  0  0  0  0  0  0  0
   10.8371    3.1568   -2.7200 H   0  0  0  0  0  0  0  0  0  0  0  0
    8.6899    4.2167   -2.6156 H   0  0  0  0  0  0  0  0  0  0  0  0
    9.8021    5.5904   -2.0368 H   0  0  0  0  0  0  0  0  0  0  0  0
    7.8473    4.9971   -0.3649 H   0  0  0  0  0  0  0  0  0  0  0  0
    9.5467    4.5759    0.2656 H   0  0  0  0  0  0  0  0  0  0  0  0
    6.6286    0.5794    0.4247 H   0  0  0  0  0  0  0  0  0  0  0  0
    8.5588   -0.0930   -0.8411 H   0  0  0  0  0  0  0  0  0  0  0  0
    7.8764    0.3939   -2.4181 H   0  0  0  0  0  0  0  0  0  0  0  0
    5.8349   -0.8723   -3.3116 H   0  0  0  0  0  0  0  0  0  0  0  0
    4.9990   -3.1742   -3.4696 H   0  0  0  0  0  0  0  0  0  0  0  0
    5.6624   -4.9518   -1.8150 H   0  0  0  0  0  0  0  0  0  0  0  0
    7.1820   -4.3448   -0.0251 H   0  0  0  0  0  0  0  0  0  0  0  0
    8.0434   -2.0714    0.1894 H   0  0  0  0  0  0  0  0  0  0  0  0
    5.2607    1.2837   -2.1089 H   0  0  0  0  0  0  0  0  0  0  0  0
    2.7206   -0.0397   -1.6001 H   0  0  0  0  0  0  0  0  0  0  0  0
    2.2686    2.6908   -0.1937 H   0  0  0  0  0  0  0  0  0  0  0  0
    1.2162    1.8627   -1.3580 H   0  0  0  0  0  0  0  0  0  0  0  0
    3.0318    0.9503   -3.4810 H   0  0  0  0  0  0  0  0  0  0  0  0
    2.1902    0.1446    1.2809 H   0  0  0  0  0  0  0  0  0  0  0  0
   -0.5747   -0.7891    1.6332 H   0  0  0  0  0  0  0  0  0  0  0  0
   -0.8221   -3.0437    1.6975 H   0  0  0  0  0  0  0  0  0  0  0  0
    0.0279   -3.3829    0.1992 H   0  0  0  0  0  0  0  0  0  0  0  0
    0.3679   -2.5983    3.6801 H   0  0  0  0  0  0  0  0  0  0  0  0
    2.4970   -3.0661    4.9548 H   0  0  0  0  0  0  0  0  0  0  0  0
    4.5538   -3.6704    3.7180 H   0  0  0  0  0  0  0  0  0  0  0  0
    4.4685   -3.8128    1.2147 H   0  0  0  0  0  0  0  0  0  0  0  0
    2.4151   -3.3521    0.0514 H   0  0  0  0  0  0  0  0  0  0  0  0
   -1.3164   -1.4880   -1.1492 H   0  0  0  0  0  0  0  0  0  0  0  0
   -4.1043   -0.6824   -0.9789 H   0  0  0  0  0  0  0  0  0  0  0  0
   -3.3625   -3.6150   -0.8324 H   0  0  0  0  0  0  0  0  0  0  0  0
   -4.9346   -3.0613   -1.4384 H   0  0  0  0  0  0  0  0  0  0  0  0
   -3.4589   -2.4024   -2.2019 H   0  0  0  0  0  0  0  0  0  0  0  0
   -4.9478   -2.0691    1.5454 H   0  0  0  0  0  0  0  0  0  0  0  0
   -7.2653   -0.6885    2.0015 H   0  0  0  0  0  0  0  0  0  0  0  0
   -6.6970   -2.8753    2.4826 H   0  0  0  0  0  0  0  0  0  0  0  0
   -8.4570   -2.7818    2.5819 H   0  0  0  0  0  0  0  0  0  0  0  0
   -9.9632   -3.7005    0.8701 H   0  0  0  0  0  0  0  0  0  0  0  0
  -10.3081   -5.5946   -0.5817 H   0  0  0  0  0  0  0  0  0  0  0  0
   -8.4566   -6.9371   -1.3674 H   0  0  0  0  0  0  0  0  0  0  0  0
   -6.1078   -6.3514   -0.6664 H   0  0  0  0  0  0  0  0  0  0  0  0
   -5.6993   -4.5052    0.7715 H   0  0  0  0  0  0  0  0  0  0  0  0
   -9.3339   -1.6083    0.0363 H   0  0  0  0  0  0  0  0  0  0  0  0
  -10.9085    0.4742   -0.5143 H   0  0  0  0  0  0  0  0  0  0  0  0
  -12.7361    0.0715    0.8965 H   0  0  0  0  0  0  0  0  0  0  0  0
  -11.5842    0.0029    2.3400 H   0  0  0  0  0  0  0  0  0  0  0  0
  -11.4525   -1.2624    1.0118 H   0  0  0  0  0  0  0  0  0  0  0  0
  -10.6139    2.5281    1.6994 H   0  0  0  0  0  0  0  0  0  0  0  0
  -11.5017    4.8281   -0.3571 H   0  0  0  0  0  0  0  0  0  0  0  0
  -10.7861    4.8375    1.8309 H   0  0  0  0  0  0  0  0  0  0  0  0
  -12.1173    3.8500    2.4801 H   0  0  0  0  0  0  0  0  0  0  0  0
  -12.3904    5.5541    1.9622 H   0  0  0  0  0  0  0  0  0  0  0  0
  -14.3540    4.2091    0.3768 H   0  0  0  0  0  0  0  0  0  0  0  0
  -15.3042    5.4787   -2.7633 H   0  0  0  0  0  0  0  0  0  0  0  0
  -15.2305    6.8714   -1.6814 H   0  0  0  0  0  0  0  0  0  0  0  0
  -15.8896    5.3235   -1.0441 H   0  0  0  0  0  0  0  0  0  0  0  0
   14.8244   -0.4166    2.5626 H   0  0  0  0  0  0  0  0  0  0  0  0
   13.7149    0.5459    3.6497 H   0  0  0  0  0  0  0  0  0  0  0  0
   13.3478   -1.1914    3.2103 H   0  0  0  0  0  0  0  0  0  0  0  0
  1  2  1  0
  2  3  1  0
  3  4  1  0
  4  5  2  0
  4  6  1  0
  6  7  1  0
  7  8  1  0
  8  9  1  0
  9 10  1  0
 10 11  1  0
 11 12  2  0
 11 13  1  0
 13 14  1  0
 14 15  1  0
 15 16  2  0
 16 17  1  0
 17 18  2  0
 18 19  1  0
 19 20  2  0
 13 21  1  0
 21 22  1  0
 22 23  2  0
 22 24  1  0
 24 25  1  0
 25 26  1  0
 26 27  1  0
 26 28  2  0
 24 29  1  0
 29 30  1  0
 30 31  2  0
 30 32  1  0
 32 33  1  0
 33 34  1  0
 34 35  2  0
 35 36  1  0
 36 37  2  0
 37 38  1  0
 38 39  2  0
 32 40  1  0
 40 41  1  0
 41 42  2  0
 41 43  1  0
 43 44  1  0
 43 45  1  0
 45 46  1  0
 46 47  2  0
 46 48  1  0
 48 49  1  0
 49 50  1  0
 50 51  2  0
 51 52  1  0
 52 53  2  0
 53 54  1  0
 54 55  2  0
 48 56  1  0
 56 57  1  0
 57 58  2  0
 57 59  1  0
 59 60  1  0
 59 61  1  0
 61 62  1  0
 62 63  2  0
 62 64  1  0
 64 65  1  0
 64 66  1  0
 66 67  1  0
 67 68  1  0
 67 69  2  0
  2 70  1  0
 70 71  1  0
 70 72  2  0
 10  6  1  0
 20 15  1  0
 39 34  1  0
 55 50  1  0
  1 73  1  0
  1 74  1  0
  1 75  1  0
  2 76  1  1
  3 77  1  0
  6 78  1  6
  7 79  1  0
  7 80  1  0
  8 81  1  0
  8 82  1  0
  9 83  1  0
  9 84  1  0
 13 85  1  1
 14 86  1  0
 14 87  1  0
 16 88  1  0
 17 89  1  0
 18 90  1  0
 19 91  1  0
 20 92  1  0
 21 93  1  0
 24 94  1  6
 25 95  1  0
 25 96  1  0
 27 97  1  0
 29 98  1  0
 32 99  1  1
 33100  1  0
 33101  1  0
 35102  1  0
 36103  1  0
 37104  1  0
 38105  1  0
 39106  1  0
 40107  1  0
 43108  1  6
 44109  1  0
 44110  1  0
 44111  1  0
 45112  1  0
 48113  1  1
 49114  1  0
 49115  1  0
 51116  1  0
 52117  1  0
 53118  1  0
 54119  1  0
 55120  1  0
 56121  1  0
 59122  1  6
 60123  1  0
 60124  1  0
 60125  1  0
 61126  1  0
 64127  1  6
 65128  1  0
 65129  1  0
 65130  1  0
 66131  1  0
 68132  1  0
 68133  1  0
 68134  1  0
 71135  1  0
 71136  1  0
 71137  1  0
M  END
$$$$
[H]c1c([H])c([H])c2c(c1[H])c(C([H])([H])[C@@]([H])(C(=O)N1C([H])([H])C([H])([H])C([H])([H])[C@@]1([H])C(=O)N([H])[C@@]1([H])C(=O)N([H])[C@@]([H])(C([H])([H])[H])C(=O)N([H])[C@@]([H])(C([H])([H])[H])C(=O)N([H])[C@@]([H])(C([H])([H])[H])C(=O)N1[H])N([H])C(=O)[C@@]([H])(N([H])[H])C([H])([H])C([H])(C([H])([H])[H])C([H])([H])[H])c([H])n2[H]
     RDKit          3D

 96 99  0  0  0  0  0  0  0  0999 V2000
   -6.9725    4.5933    1.5133 C   0  0  0  0  0  0  0  0  0  0  0  0
   -6.4909    3.8844    0.2746 C   0  0  0  0  0  0  0  0  0  0  0  0
   -4.9893    3.7312    0.3132 C   0  0  0  0  0  0  0  0  0  0  0  0
   -7.2350    2.6588   -0.0631 C   0  0  0  0  0  0  0  0  0  0  0  0
   -7.2441    1.5658    0.9403 C   0  0  2  0  0  0  0  0  0  0  0  0
   -7.8075    1.9215    2.2113 N   0  0  0  0  0  0  0  0  0  0  0  0
   -5.9636    0.8623    1.1300 C   0  0  0  0  0  0  0  0  0  0  0  0
   -5.5560    0.6717    2.2973 O   0  0  0  0  0  0  0  0  0  0  0  0
   -5.1525    0.3804    0.0785 N   0  0  0  0  0  0  0  0  0  0  0  0
   -3.8583   -0.3336    0.3663 C   0  0  1  0  0  0  0  0  0  0  0  0
   -4.0501   -1.7374    0.0111 C   0  0  0  0  0  0  0  0  0  0  0  0
   -3.0264   -2.7313    0.1178 C   0  0  0  0  0  0  0  0  0  0  0  0
   -2.8076   -3.5958    1.1982 C   0  0  0  0  0  0  0  0  0  0  0  0
   -1.7574   -4.3919    0.9395 N   0  0  0  0  0  0  0  0  0  0  0  0
   -1.2592   -4.1007   -0.2704 C   0  0  0  0  0  0  0  0  0  0  0  0
   -0.2117   -4.6478   -0.9953 C   0  0  0  0  0  0  0  0  0  0  0  0
    0.0618   -4.1611   -2.2549 C   0  0  0  0  0  0  0  0  0  0  0  0
   -0.6983   -3.1363   -2.7938 C   0  0  0  0  0  0  0  0  0  0  0  0
   -1.7363   -2.6066   -2.0523 C   0  0  0  0  0  0  0  0  0  0  0  0
   -2.0232   -3.0855   -0.7873 C   0  0  0  0  0  0  0  0  0  0  0  0
   -2.7556    0.4629   -0.0962 C   0  0  0  0  0  0  0  0  0  0  0  0
   -2.7389    1.0910   -1.2080 O   0  0  0  0  0  0  0  0  0  0  0  0
   -1.5772    0.6257    0.6850 N   0  0  0  0  0  0  0  0  0  0  0  0
   -1.2895   -0.0736    1.9464 C   0  0  0  0  0  0  0  0  0  0  0  0
   -0.3474    0.8339    2.7122 C   0  0  0  0  0  0  0  0  0  0  0  0
   -0.4277    2.1388    1.9553 C   0  0  0  0  0  0  0  0  0  0  0  0
   -0.4876    1.5902    0.5028 C   0  0  1  0  0  0  0  0  0  0  0  0
    0.7900    1.0355    0.1307 C   0  0  0  0  0  0  0  0  0  0  0  0
    1.7948    1.8704    0.0914 O   0  0  0  0  0  0  0  0  0  0  0  0
    1.1443   -0.2784   -0.2010 N   0  0  0  0  0  0  0  0  0  0  0  0
    2.5426   -0.6179   -0.5333 C   0  0  1  0  0  0  0  0  0  0  0  0
    2.9287   -1.7425    0.3460 C   0  0  0  0  0  0  0  0  0  0  0  0
    1.9825   -2.4320    0.8581 O   0  0  0  0  0  0  0  0  0  0  0  0
    4.2420   -2.1220    0.6691 N   0  0  0  0  0  0  0  0  0  0  0  0
    5.2935   -1.2490    1.1333 C   0  0  1  0  0  0  0  0  0  0  0  0
    5.3061   -1.1584    2.6522 C   0  0  0  0  0  0  0  0  0  0  0  0
    6.6089   -1.7643    0.6693 C   0  0  0  0  0  0  0  0  0  0  0  0
    7.1377   -2.6581    1.4144 O   0  0  0  0  0  0  0  0  0  0  0  0
    7.2397   -1.3085   -0.5073 N   0  0  0  0  0  0  0  0  0  0  0  0
    7.2707    0.0686   -0.9524 C   0  0  1  0  0  0  0  0  0  0  0  0
    8.6348    0.6119   -0.5200 C   0  0  0  0  0  0  0  0  0  0  0  0
    7.1643    0.1910   -2.4142 C   0  0  0  0  0  0  0  0  0  0  0  0
    8.2203    0.3629   -3.1129 O   0  0  0  0  0  0  0  0  0  0  0  0
    5.9529    0.1340   -3.1535 N   0  0  0  0  0  0  0  0  0  0  0  0
    4.6723    0.4667   -2.5538 C   0  0  1  0  0  0  0  0  0  0  0  0
    4.2011    1.8178   -3.0914 C   0  0  0  0  0  0  0  0  0  0  0  0
    3.6677   -0.5810   -2.8092 C   0  0  0  0  0  0  0  0  0  0  0  0
    3.7137   -1.1132   -3.9725 O   0  0  0  0  0  0  0  0  0  0  0  0
    2.6858   -1.0341   -1.9022 N   0  0  0  0  0  0  0  0  0  0  0  0
   -6.3521    4.3417    2.4098 H   0  0  0  0  0  0  0  0  0  0  0  0
   -6.8483    5.7046    1.3975 H   0  0  0  0  0  0  0  0  0  0  0  0
   -8.0554    4.4461    1.7011 H   0  0  0  0  0  0  0  0  0  0  0  0
   -6.6863    4.6162   -0.5698 H   0  0  0  0  0  0  0  0  0  0  0  0
   -4.5370    4.7665    0.3656 H   0  0  0  0  0  0  0  0  0  0  0  0
   -4.6257    3.2222    1.2348 H   0  0  0  0  0  0  0  0  0  0  0  0
   -4.5845    3.2961   -0.6137 H   0  0  0  0  0  0  0  0  0  0  0  0
   -8.2708    2.9286   -0.3530 H   0  0  0  0  0  0  0  0  0  0  0  0
   -6.7773    2.2374   -1.0012 H   0  0  0  0  0  0  0  0  0  0  0  0
   -7.9558    0.7843    0.5222 H   0  0  0  0  0  0  0  0  0  0  0  0
   -8.4969    1.2055    2.5766 H   0  0  0  0  0  0  0  0  0  0  0  0
   -7.0905    2.1227    2.9424 H   0  0  0  0  0  0  0  0  0  0  0  0
   -5.3662    0.4713   -0.9349 H   0  0  0  0  0  0  0  0  0  0  0  0
   -3.8296   -0.2882    1.5035 H   0  0  0  0  0  0  0  0  0  0  0  0
   -4.4305   -1.7501   -1.0769 H   0  0  0  0  0  0  0  0  0  0  0  0
   -4.9811   -2.1658    0.5354 H   0  0  0  0  0  0  0  0  0  0  0  0
   -3.4154   -3.5948    2.0952 H   0  0  0  0  0  0  0  0  0  0  0  0
   -1.3859   -5.1170    1.5692 H   0  0  0  0  0  0  0  0  0  0  0  0
    0.4057   -5.4468   -0.6131 H   0  0  0  0  0  0  0  0  0  0  0  0
    0.8742   -4.5802   -2.8279 H   0  0  0  0  0  0  0  0  0  0  0  0
   -0.4894   -2.7494   -3.7808 H   0  0  0  0  0  0  0  0  0  0  0  0
   -2.3528   -1.8071   -2.4333 H   0  0  0  0  0  0  0  0  0  0  0  0
   -0.8397   -1.0724    1.7443 H   0  0  0  0  0  0  0  0  0  0  0  0
   -2.1923   -0.1752    2.5797 H   0  0  0  0  0  0  0  0  0  0  0  0
    0.6801    0.4235    2.7500 H   0  0  0  0  0  0  0  0  0  0  0  0
   -0.6846    1.0299    3.7481 H   0  0  0  0  0  0  0  0  0  0  0  0
    0.4603    2.7448    2.1007 H   0  0  0  0  0  0  0  0  0  0  0  0
   -1.3961    2.5945    2.1472 H   0  0  0  0  0  0  0  0  0  0  0  0
   -0.8455    2.3881   -0.1729 H   0  0  0  0  0  0  0  0  0  0  0  0
    0.4937   -1.0928   -0.2431 H   0  0  0  0  0  0  0  0  0  0  0  0
    3.1328    0.3086   -0.3263 H   0  0  0  0  0  0  0  0  0  0  0  0
    4.5102   -3.1458    0.5711 H   0  0  0  0  0  0  0  0  0  0  0  0
    5.1476   -0.2293    0.7545 H   0  0  0  0  0  0  0  0  0  0  0  0
    5.8281   -2.0535    3.0768 H   0  0  0  0  0  0  0  0  0  0  0  0
    5.8417   -0.2527    2.9686 H   0  0  0  0  0  0  0  0  0  0  0  0
    4.2659   -1.0754    3.0031 H   0  0  0  0  0  0  0  0  0  0  0  0
    7.7238   -2.0205   -1.1031 H   0  0  0  0  0  0  0  0  0  0  0  0
    6.5293    0.7020   -0.4137 H   0  0  0  0  0  0  0  0  0  0  0  0
    9.4319    0.0965   -1.0877 H   0  0  0  0  0  0  0  0  0  0  0  0
    8.7588    0.4679    0.5819 H   0  0  0  0  0  0  0  0  0  0  0  0
    8.6846    1.6856   -0.7443 H   0  0  0  0  0  0  0  0  0  0  0  0
    5.9226   -0.1487   -4.1608 H   0  0  0  0  0  0  0  0  0  0  0  0
    4.7863    0.5832   -1.4609 H   0  0  0  0  0  0  0  0  0  0  0  0
    3.3446    1.6162   -3.7660 H   0  0  0  0  0  0  0  0  0  0  0  0
    3.8306    2.4710   -2.2695 H   0  0  0  0  0  0  0  0  0  0  0  0
    5.0413    2.3339   -3.5837 H   0  0  0  0  0  0  0  0  0  0  0  0
    2.0036   -1.7332   -2.2551 H   0  0  0  0  0  0  0  0  0  0  0  0
  1  2  1  0
  2  3  1  0
  2  4  1  0
  4  5  1  0
  5  6  1  0
  5  7  1  0
  7  8  2  0
  7  9  1  0
  9 10  1  0
 10 11  1  0
 11 12  1  0
 12 13  2  0
 13 14  1  0
 14 15  1  0
 15 16  2  0
 16 17  1  0
 17 18  2  0
 18 19  1  0
 19 20  2  0
 10 21  1  0
 21 22  2  0
 21 23  1  0
 23 24  1  0
 24 25  1  0
 25 26  1  0
 26 27  1  0
 27 28  1  0
 28 29  2  0
 28 30  1  0
 30 31  1  0
 31 32  1  0
 32 33  2  0
 32 34  1  0
 34 35  1  0
 35 36  1  0
 35 37  1  0
 37 38  2  0
 37 39  1  0
 39 40  1  0
 40 41  1  0
 40 42  1  0
 42 43  2  0
 42 44  1  0
 44 45  1  0
 45 46  1  0
 45 47  1  0
 47 48  2  0
 47 49  1  0
 20 12  1  0
 27 23  1  0
 49 31  1  0
 20 15  1  0
  1 50  1  0
  1 51  1  0
  1 52  1  0
  2 53  1  0
  3 54  1  0
  3 55  1  0
  3 56  1  0
  4 57  1  0
  4 58  1  0
  5 59  1  6
  6 60  1  0
  6 61  1  0
  9 62  1  0
 10 63  1  1
 11 64  1  0
 11 65  1  0
 13 66  1  0
 14 67  1  0
 16 68  1  0
 17 69  1  0
 18 70  1  0
 19 71  1  0
 24 72  1  0
 24 73  1  0
 25 74  1  0
 25 75  1  0
 26 76  1  0
 26 77  1  0
 27 78  1  6
 30 79  1  0
 31 80  1  1
 34 81  1  0
 35 82  1  6
 36 83  1  0
 36 84  1  0
 36 85  1  0
 39 86  1  0
 40 87  1  1
 41 88  1  0
 41 89  1  0
 41 90  1  0
 44 91  1  0
 45 92  1  1
 46 93  1  0
 46 94  1  0
 46 95  1  0
 49 96  1  0
M  END
$$$$
[H]c1nc(N([H])c2c([H])c(N([H])C(=O)c3c([H])c([H])nc(C(F)(F)F)c3[H])c([H])c([H])c2C([H])([H])[H])c([H])c(C#N)c1[H]
     RDKit          3D

 43 45  0  0  0  0  0  0  0  0999 V2000
    2.6658   -3.5117   -1.2081 C   0  0  0  0  0  0  0  0  0  0  0  0
    1.6307   -2.5336   -0.7832 C   0  0  0  0  0  0  0  0  0  0  0  0
    0.3446   -2.9851   -0.6415 C   0  0  0  0  0  0  0  0  0  0  0  0
   -0.6017   -2.1226   -0.2107 C   0  0  0  0  0  0  0  0  0  0  0  0
   -0.3569   -0.7622    0.1135 C   0  0  0  0  0  0  0  0  0  0  0  0
   -1.3574    0.0132    0.4606 N   0  0  0  0  0  0  0  0  0  0  0  0
   -2.4241    0.8486    0.8366 C   0  0  0  0  0  0  0  0  0  0  0  0
   -2.3333    1.8663    1.5117 O   0  0  0  0  0  0  0  0  0  0  0  0
   -3.8055    0.5106    0.4068 C   0  0  0  0  0  0  0  0  0  0  0  0
   -4.2025   -0.7780    0.2042 C   0  0  0  0  0  0  0  0  0  0  0  0
   -5.5357   -1.0303   -0.1835 C   0  0  0  0  0  0  0  0  0  0  0  0
   -6.3987   -0.0346   -0.3458 N   0  0  0  0  0  0  0  0  0  0  0  0
   -6.0286    1.2298   -0.1540 C   0  0  0  0  0  0  0  0  0  0  0  0
   -4.7341    1.5129    0.2205 C   0  0  0  0  0  0  0  0  0  0  0  0
   -6.9576    2.3573   -0.2973 C   0  0  0  0  0  0  0  0  0  0  0  0
   -6.4403    3.2928   -1.1373 F   0  0  0  0  0  0  0  0  0  0  0  0
   -7.2448    2.8766    0.9439 F   0  0  0  0  0  0  0  0  0  0  0  0
   -8.1654    1.8067   -0.7833 F   0  0  0  0  0  0  0  0  0  0  0  0
    1.0099   -0.3938   -0.0665 C   0  0  0  0  0  0  0  0  0  0  0  0
    2.0065   -1.2116   -0.4967 C   0  0  0  0  0  0  0  0  0  0  0  0
    3.3560   -0.8964   -0.6772 N   0  0  0  0  0  0  0  0  0  0  0  0
    4.2094    0.1541   -0.3848 C   0  0  0  0  0  0  0  0  0  0  0  0
    3.9461    1.3677    0.1036 C   0  0  0  0  0  0  0  0  0  0  0  0
    4.9096    2.3315    0.4651 C   0  0  0  0  0  0  0  0  0  0  0  0
    6.2395    1.9600    0.2827 C   0  0  0  0  0  0  0  0  0  0  0  0
    6.5401    0.7186   -0.2174 C   0  0  0  0  0  0  0  0  0  0  0  0
    5.5697   -0.1490   -0.5405 N   0  0  0  0  0  0  0  0  0  0  0  0
    4.5365    3.6194    0.9562 C   0  0  0  0  0  0  0  0  0  0  0  0
    4.2245    4.6589    1.3595 N   0  0  0  0  0  0  0  0  0  0  0  0
    3.5503   -3.5018   -0.5072 H   0  0  0  0  0  0  0  0  0  0  0  0
    2.2471   -4.5628   -1.0689 H   0  0  0  0  0  0  0  0  0  0  0  0
    2.9764   -3.4068   -2.2335 H   0  0  0  0  0  0  0  0  0  0  0  0
    0.0987   -4.0294   -0.8985 H   0  0  0  0  0  0  0  0  0  0  0  0
   -1.6268   -2.4548   -0.0991 H   0  0  0  0  0  0  0  0  0  0  0  0
   -0.5852    0.6411    1.3970 H   0  0  0  0  0  0  0  0  0  0  0  0
   -3.5719   -1.6224    0.3453 H   0  0  0  0  0  0  0  0  0  0  0  0
   -5.8610   -2.0270   -0.3479 H   0  0  0  0  0  0  0  0  0  0  0  0
   -4.4272    2.5397    0.3948 H   0  0  0  0  0  0  0  0  0  0  0  0
    1.2282    0.6380    0.1472 H   0  0  0  0  0  0  0  0  0  0  0  0
    3.8816   -1.7048   -1.2492 H   0  0  0  0  0  0  0  0  0  0  0  0
    2.9441    1.7166    0.2554 H   0  0  0  0  0  0  0  0  0  0  0  0
    6.9953    2.6523    0.5400 H   0  0  0  0  0  0  0  0  0  0  0  0
    7.5480    0.4061   -0.3847 H   0  0  0  0  0  0  0  0  0  0  0  0
  1  2  1  0
  2  3  2  0
  3  4  1  0
  4  5  2  0
  5  6  1  0
  6  7  1  0
  7  8  2  0
  7  9  1  0
  9 10  2  0
 10 11  1  0
 11 12  2  0
 12 13  1  0
 13 14  2  0
 13 15  1  0
 15 16  1  0
 15 17  1  0
 15 18  1  0
  5 19  1  0
 19 20  2  0
 20 21  1  0
 21 22  1  0
 22 23  2  0
 23 24  1  0
 24 25  2  0
 25 26  1  0
 26 27  2  0
 24 28  1  0
 28 29  3  0
 20  2  1  0
 27 22  1  0
 14  9  1  0
  1 30  1  0
  1 31  1  0
  1 32  1  0
  3 33  1  0
  4 34  1  0
  6 35  1  0
 10 36  1  0
 11 37  1  0
 14 38  1  0
 19 39  1  0
 21 40  1  0
 23 41  1  0
 25 42  1  0
 26 43  1  0
M  END
$$$$
[H]N=C(N([H])[H])N([H])C([H])([H])C([H])([H])C([H])([H])[C@@]([H])(C(=O)N([H])[C@]([H])(C(=O)N([H])[H])C([H])([H])c1c([H])n([H])c2c([H])c([H])c([H])c([H])c12)N([H])C(=O)[C@@]([H])(N([H])C(=O)[C@@]([H])(N([H])C(=O)[C@@]([H])(N([H])[H])C([H])([H])c1c([H])c([H])c(O[H])c([H])c1[H])[C@@]([H])(C([H])([H])[H])C([H])([H])C([H])([H])[H])C([H])([H])c1c([H])c([H])c(O[H])c([H])c1[H]
     RDKit          3D

112115  0  0  0  0  0  0  0  0999 V2000
    1.9320    0.8094    1.8928 C   0  0  0  0  0  0  0  0  0  0  0  0
    3.3808    0.6684    2.2259 C   0  0  0  0  0  0  0  0  0  0  0  0
    4.0511   -0.5937    1.8300 C   0  0  2  0  0  0  0  0  0  0  0  0
    5.5077   -0.4613    2.3169 C   0  0  0  0  0  0  0  0  0  0  0  0
    4.1191   -0.8775    0.3500 C   0  0  2  0  0  0  0  0  0  0  0  0
    4.8177    0.1655   -0.3904 N   0  0  0  0  0  0  0  0  0  0  0  0
    6.0499   -0.0595   -1.0030 C   0  0  0  0  0  0  0  0  0  0  0  0
    6.5635   -1.2089   -0.8674 O   0  0  0  0  0  0  0  0  0  0  0  0
    6.7873    0.9232   -1.7901 C   0  0  1  0  0  0  0  0  0  0  0  0
    6.0696    2.1817   -1.9388 N   0  0  0  0  0  0  0  0  0  0  0  0
    8.1884    1.0861   -1.4017 C   0  0  0  0  0  0  0  0  0  0  0  0
    8.5041    1.5128   -0.0444 C   0  0  0  0  0  0  0  0  0  0  0  0
    8.4694    2.8380    0.3726 C   0  0  0  0  0  0  0  0  0  0  0  0
    8.7880    3.2196    1.6543 C   0  0  0  0  0  0  0  0  0  0  0  0
    9.1666    2.2724    2.6094 C   0  0  0  0  0  0  0  0  0  0  0  0
    9.4850    2.7042    3.9108 O   0  0  0  0  0  0  0  0  0  0  0  0
    9.2048    0.9596    2.2054 C   0  0  0  0  0  0  0  0  0  0  0  0
    8.8810    0.6079    0.9178 C   0  0  0  0  0  0  0  0  0  0  0  0
    2.8188   -1.1669   -0.2655 C   0  0  0  0  0  0  0  0  0  0  0  0
    2.5469   -0.4543   -1.3193 O   0  0  0  0  0  0  0  0  0  0  0  0
    1.8147   -2.0756    0.0880 N   0  0  0  0  0  0  0  0  0  0  0  0
    0.5725   -2.1057   -0.7103 C   0  0  1  0  0  0  0  0  0  0  0  0
    0.4485   -3.4265   -1.4227 C   0  0  0  0  0  0  0  0  0  0  0  0
    1.5723   -3.7076   -2.3284 C   0  0  0  0  0  0  0  0  0  0  0  0
    1.5939   -3.3660   -3.6628 C   0  0  0  0  0  0  0  0  0  0  0  0
    2.6925   -3.6605   -4.4220 C   0  0  0  0  0  0  0  0  0  0  0  0
    3.7920   -4.3070   -3.8400 C   0  0  0  0  0  0  0  0  0  0  0  0
    4.9033   -4.6138   -4.5701 O   0  0  0  0  0  0  0  0  0  0  0  0
    3.7903   -4.6554   -2.5093 C   0  0  0  0  0  0  0  0  0  0  0  0
    2.6810   -4.3563   -1.7548 C   0  0  0  0  0  0  0  0  0  0  0  0
   -0.6121   -2.0108    0.1935 C   0  0  0  0  0  0  0  0  0  0  0  0
   -0.7096   -2.7684    1.1571 O   0  0  0  0  0  0  0  0  0  0  0  0
   -1.5544   -1.0282   -0.1231 N   0  0  0  0  0  0  0  0  0  0  0  0
   -2.8146   -0.7815    0.6498 C   0  0  1  0  0  0  0  0  0  0  0  0
   -2.4316   -0.2209    1.9721 C   0  0  0  0  0  0  0  0  0  0  0  0
   -3.4859    0.0627    2.9644 C   0  0  0  0  0  0  0  0  0  0  0  0
   -4.3532   -1.1188    3.3410 C   0  0  0  0  0  0  0  0  0  0  0  0
   -3.6498   -2.2171    3.9213 N   0  0  0  0  0  0  0  0  0  0  0  0
   -4.4090   -3.3919    4.2788 C   0  0  0  0  0  0  0  0  0  0  0  0
   -4.4034   -3.9141    5.5885 N   0  0  0  0  0  0  0  0  0  0  0  0
   -5.0974   -3.9590    3.3535 N   0  0  0  0  0  0  0  0  0  0  0  0
   -3.7491   -0.1217   -0.2096 C   0  0  0  0  0  0  0  0  0  0  0  0
   -3.4411   -0.1628   -1.4899 O   0  0  0  0  0  0  0  0  0  0  0  0
   -4.9253    0.5577    0.0888 N   0  0  0  0  0  0  0  0  0  0  0  0
   -5.7095    1.1582   -1.0551 C   0  0  1  0  0  0  0  0  0  0  0  0
   -7.1166    1.0941   -0.6502 C   0  0  0  0  0  0  0  0  0  0  0  0
   -8.1181    1.6561   -1.5713 C   0  0  0  0  0  0  0  0  0  0  0  0
   -8.7634    0.9851   -2.6148 C   0  0  0  0  0  0  0  0  0  0  0  0
   -9.5760    1.8061   -3.2871 N   0  0  0  0  0  0  0  0  0  0  0  0
   -9.4819    3.0219   -2.7015 C   0  0  0  0  0  0  0  0  0  0  0  0
  -10.1003    4.2388   -2.9552 C   0  0  0  0  0  0  0  0  0  0  0  0
   -9.8372    5.3438   -2.1769 C   0  0  0  0  0  0  0  0  0  0  0  0
   -8.9561    5.2928   -1.1190 C   0  0  0  0  0  0  0  0  0  0  0  0
   -8.3431    4.0859   -0.8699 C   0  0  0  0  0  0  0  0  0  0  0  0
   -8.5953    2.9595   -1.6467 C   0  0  0  0  0  0  0  0  0  0  0  0
   -5.1503    2.4911   -1.2699 C   0  0  0  0  0  0  0  0  0  0  0  0
   -5.3198    3.1857   -2.4941 N   0  0  0  0  0  0  0  0  0  0  0  0
   -4.4855    3.0540   -0.3502 O   0  0  0  0  0  0  0  0  0  0  0  0
    1.3002   -0.0321    2.2164 H   0  0  0  0  0  0  0  0  0  0  0  0
    1.7836    1.1193    0.8411 H   0  0  0  0  0  0  0  0  0  0  0  0
    1.4962    1.6981    2.4743 H   0  0  0  0  0  0  0  0  0  0  0  0
    3.4671    0.7633    3.3616 H   0  0  0  0  0  0  0  0  0  0  0  0
    3.9081    1.5799    1.8423 H   0  0  0  0  0  0  0  0  0  0  0  0
    3.6356   -1.4582    2.3519 H   0  0  0  0  0  0  0  0  0  0  0  0
    5.9115    0.5053    1.8981 H   0  0  0  0  0  0  0  0  0  0  0  0
    6.1420   -1.2866    1.9916 H   0  0  0  0  0  0  0  0  0  0  0  0
    5.5498   -0.3243    3.4097 H   0  0  0  0  0  0  0  0  0  0  0  0
    4.7434   -1.8156    0.2388 H   0  0  0  0  0  0  0  0  0  0  0  0
    4.3284    1.1043   -0.4249 H   0  0  0  0  0  0  0  0  0  0  0  0
    6.7836    0.5107   -2.8514 H   0  0  0  0  0  0  0  0  0  0  0  0
    6.6246    2.7557   -2.6035 H   0  0  0  0  0  0  0  0  0  0  0  0
    5.1724    1.9654   -2.4449 H   0  0  0  0  0  0  0  0  0  0  0  0
    8.7113    1.8309   -2.0888 H   0  0  0  0  0  0  0  0  0  0  0  0
    8.7890    0.1450   -1.5910 H   0  0  0  0  0  0  0  0  0  0  0  0
    8.1819    3.6145   -0.3156 H   0  0  0  0  0  0  0  0  0  0  0  0
    8.7643    4.2502    1.9840 H   0  0  0  0  0  0  0  0  0  0  0  0
    8.6515    2.7170    4.5243 H   0  0  0  0  0  0  0  0  0  0  0  0
    9.5025    0.2266    2.9542 H   0  0  0  0  0  0  0  0  0  0  0  0
    8.9358   -0.4430    0.6650 H   0  0  0  0  0  0  0  0  0  0  0  0
    1.8848   -2.7264    0.8721 H   0  0  0  0  0  0  0  0  0  0  0  0
    0.5739   -1.2456   -1.3827 H   0  0  0  0  0  0  0  0  0  0  0  0
   -0.4877   -3.4590   -2.0359 H   0  0  0  0  0  0  0  0  0  0  0  0
    0.3126   -4.2226   -0.6609 H   0  0  0  0  0  0  0  0  0  0  0  0
    0.7555   -2.8707   -4.0981 H   0  0  0  0  0  0  0  0  0  0  0  0
    2.7146   -3.3982   -5.4834 H   0  0  0  0  0  0  0  0  0  0  0  0
    4.9608   -4.3834   -5.5538 H   0  0  0  0  0  0  0  0  0  0  0  0
    4.6358   -5.1478   -2.0806 H   0  0  0  0  0  0  0  0  0  0  0  0
    2.6943   -4.6358   -0.7164 H   0  0  0  0  0  0  0  0  0  0  0  0
   -1.4513   -0.3616   -0.9446 H   0  0  0  0  0  0  0  0  0  0  0  0
   -3.1771   -1.8428    0.8733 H   0  0  0  0  0  0  0  0  0  0  0  0
   -1.8274    0.7353    1.8631 H   0  0  0  0  0  0  0  0  0  0  0  0
   -1.6815   -0.9077    2.4835 H   0  0  0  0  0  0  0  0  0  0  0  0
   -2.9179    0.2833    3.9468 H   0  0  0  0  0  0  0  0  0  0  0  0
   -4.0924    0.9470    2.8416 H   0  0  0  0  0  0  0  0  0  0  0  0
   -5.0482   -0.7155    4.1313 H   0  0  0  0  0  0  0  0  0  0  0  0
   -5.0252   -1.4307    2.5008 H   0  0  0  0  0  0  0  0  0  0  0  0
   -2.6363   -2.2941    4.1300 H   0  0  0  0  0  0  0  0  0  0  0  0
   -3.7010   -3.6102    6.2788 H   0  0  0  0  0  0  0  0  0  0  0  0
   -5.1212   -4.6066    5.8643 H   0  0  0  0  0  0  0  0  0  0  0  0
   -5.1336   -3.6170    2.3758 H   0  0  0  0  0  0  0  0  0  0  0  0
   -5.3017    0.6752    1.0257 H   0  0  0  0  0  0  0  0  0  0  0  0
   -5.4882    0.4946   -1.9386 H   0  0  0  0  0  0  0  0  0  0  0  0
   -7.3065    1.5718    0.3527 H   0  0  0  0  0  0  0  0  0  0  0  0
   -7.4337    0.0175   -0.4746 H   0  0  0  0  0  0  0  0  0  0  0  0
   -8.5916   -0.0668   -2.8104 H   0  0  0  0  0  0  0  0  0  0  0  0
  -10.1699    1.5621   -4.1096 H   0  0  0  0  0  0  0  0  0  0  0  0
  -10.7966    4.3282   -3.7804 H   0  0  0  0  0  0  0  0  0  0  0  0
  -10.3507    6.2771   -2.4205 H   0  0  0  0  0  0  0  0  0  0  0  0
   -8.7782    6.1778   -0.5287 H   0  0  0  0  0  0  0  0  0  0  0  0
   -7.6490    4.0410   -0.0409 H   0  0  0  0  0  0  0  0  0  0  0  0
   -5.2046    2.6681   -3.4156 H   0  0  0  0  0  0  0  0  0  0  0  0
   -5.5466    4.1863   -2.5547 H   0  0  0  0  0  0  0  0  0  0  0  0
  1  2  1  0
  2  3  1  0
  3  4  1  0
  3  5  1  0
  5  6  1  0
  6  7  1  0
  7  8  2  0
  7  9  1  0
  9 10  1  0
  9 11  1  0
 11 12  1  0
 12 13  2  0
 13 14  1  0
 14 15  2  0
 15 16  1  0
 15 17  1  0
 17 18  2  0
  5 19  1  0
 19 20  2  0
 19 21  1  0
 21 22  1  0
 22 23  1  0
 23 24  1  0
 24 25  2  0
 25 26  1  0
 26 27  2  0
 27 28  1  0
 27 29  1  0
 29 30  2  0
 22 31  1  0
 31 32  2  0
 31 33  1  0
 33 34  1  0
 34 35  1  0
 35 36  1  0
 36 37  1  0
 37 38  1  0
 38 39  1  0
 39 40  1  0
 39 41  2  3
 34 42  1  0
 42 43  2  0
 42 44  1  0
 44 45  1  0
 45 46  1  0
 46 47  1  0
 47 48  2  0
 48 49  1  0
 49 50  1  0
 50 51  2  0
 51 52  1  0
 52 53  2  0
 53 54  1  0
 54 55  2  0
 45 56  1  0
 56 57  1  0
 56 58  2  0
 18 12  1  0
 30 24  1  0
 55 47  1  0
 55 50  1  0
  1 59  1  0
  1 60  1  0
  1 61  1  0
  2 62  1  0
  2 63  1  0
  3 64  1  1
  4 65  1  0
  4 66  1  0
  4 67  1  0
  5 68  1  1
  6 69  1  0
  9 70  1  6
 10 71  1  0
 10 72  1  0
 11 73  1  0
 11 74  1  0
 13 75  1  0
 14 76  1  0
 16 77  1  0
 17 78  1  0
 18 79  1  0
 21 80  1  0
 22 81  1  6
 23 82  1  0
 23 83  1  0
 25 84  1  0
 26 85  1  0
 28 86  1  0
 29 87  1  0
 30 88  1  0
 33 89  1  0
 34 90  1  1
 35 91  1  0
 35 92  1  0
 36 93  1  0
 36 94  1  0
 37 95  1  0
 37 96  1  0
 38 97  1  0
 40 98  1  0
 40 99  1  0
 41100  1  0
 44101  1  0
 45102  1  6
 46103  1  0
 46104  1  0
 48105  1  0
 49106  1  0
 51107  1  0
 52108  1  0
 53109  1  0
 54110  1  0
 57111  1  0
 57112  1  0
M  END
$$$$
[H]OC([H])([H])[C@]1([H])N(S(=O)(=O)c2c([H])c([H])c(OC([H])([H])[H])c([H])c2[H])C([H])([H])[C@@]2([H])[C@]([H])(N(C([H])([H])[H])C([H])([H])[H])C([H])([H])[C@]21[H]
     RDKit          3D

 47 49  0  0  0  0  0  0  0  0999 V2000
    6.8632   -0.1038    1.0322 C   0  0  0  0  0  0  0  0  0  0  0  0
    5.9034    0.9041    1.2448 O   0  0  0  0  0  0  0  0  0  0  0  0
    4.7225    0.8889    0.5380 C   0  0  0  0  0  0  0  0  0  0  0  0
    4.4925   -0.1143   -0.3716 C   0  0  0  0  0  0  0  0  0  0  0  0
    3.2915   -0.1277   -1.0885 C   0  0  0  0  0  0  0  0  0  0  0  0
    2.3280    0.8317   -0.9149 C   0  0  0  0  0  0  0  0  0  0  0  0
    2.6020    1.8319    0.0181 C   0  0  0  0  0  0  0  0  0  0  0  0
    3.7823    1.8513    0.7275 C   0  0  0  0  0  0  0  0  0  0  0  0
    0.8657    0.7552   -1.8343 S   0  0  0  0  0  0  0  0  0  0  0  0
    1.2251    0.0726   -3.1485 O   0  0  0  0  0  0  0  0  0  0  0  0
    0.5386    2.2205   -2.1870 O   0  0  0  0  0  0  0  0  0  0  0  0
   -0.4601    0.0654   -1.1593 N   0  0  0  0  0  0  0  0  0  0  0  0
   -0.9249    0.7130    0.0173 C   0  0  0  0  0  0  0  0  0  0  0  0
   -2.2148    0.0149    0.4044 C   0  0  1  0  0  0  0  0  0  0  0  0
   -3.3587    0.4708   -0.4787 C   0  0  1  0  0  0  0  0  0  0  0  0
   -3.2701   -0.8279   -1.2049 C   0  0  0  0  0  0  0  0  0  0  0  0
   -2.1255   -1.2790   -0.3602 C   0  0  1  0  0  0  0  0  0  0  0  0
   -0.7525   -1.2715   -1.0666 C   0  0  2  0  0  0  0  0  0  0  0  0
    0.1234   -2.1339   -0.1654 C   0  0  0  0  0  0  0  0  0  0  0  0
   -0.4377   -3.4378   -0.2681 O   0  0  0  0  0  0  0  0  0  0  0  0
   -4.5418    0.7644    0.2609 N   0  0  0  0  0  0  0  0  0  0  0  0
   -5.0953   -0.3525    0.9612 C   0  0  0  0  0  0  0  0  0  0  0  0
   -4.2755    1.8501    1.1807 C   0  0  0  0  0  0  0  0  0  0  0  0
    7.6331   -0.0040    1.8253 H   0  0  0  0  0  0  0  0  0  0  0  0
    6.4016   -1.1162    1.1432 H   0  0  0  0  0  0  0  0  0  0  0  0
    7.2923   -0.0601    0.0186 H   0  0  0  0  0  0  0  0  0  0  0  0
    5.2455   -0.8807   -0.5203 H   0  0  0  0  0  0  0  0  0  0  0  0
    3.1806   -0.9484   -1.7871 H   0  0  0  0  0  0  0  0  0  0  0  0
    1.8395    2.5785    0.1454 H   0  0  0  0  0  0  0  0  0  0  0  0
    3.9721    2.6536    1.4582 H   0  0  0  0  0  0  0  0  0  0  0  0
   -0.1980    0.7382    0.8466 H   0  0  0  0  0  0  0  0  0  0  0  0
   -1.1855    1.7773   -0.2479 H   0  0  0  0  0  0  0  0  0  0  0  0
   -2.4209   -0.0622    1.4732 H   0  0  0  0  0  0  0  0  0  0  0  0
   -3.0932    1.3095   -1.1638 H   0  0  0  0  0  0  0  0  0  0  0  0
   -4.1942   -1.4337   -1.1362 H   0  0  0  0  0  0  0  0  0  0  0  0
   -2.9677   -0.7568   -2.2766 H   0  0  0  0  0  0  0  0  0  0  0  0
   -2.2980   -2.1747    0.2582 H   0  0  0  0  0  0  0  0  0  0  0  0
   -0.8312   -1.8408   -2.0251 H   0  0  0  0  0  0  0  0  0  0  0  0
    1.1376   -2.2524   -0.5542 H   0  0  0  0  0  0  0  0  0  0  0  0
    0.0434   -1.8386    0.8884 H   0  0  0  0  0  0  0  0  0  0  0  0
   -0.4801   -3.8694    0.6005 H   0  0  0  0  0  0  0  0  0  0  0  0
   -5.6194   -1.0089    0.2592 H   0  0  0  0  0  0  0  0  0  0  0  0
   -4.2766   -0.9087    1.4914 H   0  0  0  0  0  0  0  0  0  0  0  0
   -5.8502   -0.0169    1.7101 H   0  0  0  0  0  0  0  0  0  0  0  0
   -3.4420    1.6542    1.8676 H   0  0  0  0  0  0  0  0  0  0  0  0
   -5.2006    2.1398    1.7529 H   0  0  0  0  0  0  0  0  0  0  0  0
   -3.9693    2.7346    0.5610 H   0  0  0  0  0  0  0  0  0  0  0  0
  1  2  1  0
  2  3  1  0
  3  4  2  0
  4  5  1  0
  5  6  2  0
  6  7  1  0
  7  8  2  0
  6  9  1  0
  9 10  2  0
  9 11  2  0
  9 12  1  0
 12 13  1  0
 13 14  1  0
 14 15  1  0
 15 16  1  0
 16 17  1  0
 17 18  1  0
 18 19  1  0
 19 20  1  0
 15 21  1  0
 21 22  1  0
 21 23  1  0
  8  3  1  0
 18 12  1  0
 17 14  1  0
  1 24  1  0
  1 25  1  0
  1 26  1  0
  4 27  1  0
  5 28  1  0
  7 29  1  0
  8 30  1  0
 13 31  1  0
 13 32  1  0
 14 33  1  1
 15 34  1  6
 16 35  1  0
 16 36  1  0
 17 37  1  1
 18 38  1  6
 19 39  1  0
 19 40  1  0
 20 41  1  0
 22 42  1  0
 22 43  1  0
 22 44  1  0
 23 45  1  0
 23 46  1  0
 23 47  1  0
M  END
$$$$
[H]O[C@]1([H])[C@]([H])(n2c([H])nc3c(N([H])[H])nc([H])nc32)O[C@@]([H])(n2c([H])nc3c(N([H])[H])nc(Cl)nc32)[C@]1([H])O[H]
     RDKit          3D

 41 45  0  0  0  0  0  0  0  0999 V2000
   -6.5291    1.5851    0.5281 N   0  0  0  0  0  0  0  0  0  0  0  0
   -5.4690    0.8792   -0.0804 C   0  0  0  0  0  0  0  0  0  0  0  0
   -5.6023    0.0981   -1.1576 N   0  0  0  0  0  0  0  0  0  0  0  0
   -4.5756   -0.5549   -1.7062 C   0  0  0  0  0  0  0  0  0  0  0  0
   -3.3374   -0.4562   -1.1924 N   0  0  0  0  0  0  0  0  0  0  0  0
   -3.1495    0.3208   -0.1036 C   0  0  0  0  0  0  0  0  0  0  0  0
   -2.0544    0.5883    0.5899 N   0  0  0  0  0  0  0  0  0  0  0  0
   -2.4015    1.4194    1.5849 C   0  0  0  0  0  0  0  0  0  0  0  0
   -3.7206    1.6744    1.5151 N   0  0  0  0  0  0  0  0  0  0  0  0
   -4.1905    0.9865    0.4574 C   0  0  0  0  0  0  0  0  0  0  0  0
   -0.6902    0.1384    0.4151 C   0  0  2  0  0  0  0  0  0  0  0  0
   -0.4329   -0.3087   -0.8620 O   0  0  0  0  0  0  0  0  0  0  0  0
    0.7646   -1.0147   -0.7466 C   0  0  2  0  0  0  0  0  0  0  0  0
    0.7821   -1.6602    0.6000 C   0  0  2  0  0  0  0  0  0  0  0  0
    0.8687   -3.0274    0.5761 O   0  0  0  0  0  0  0  0  0  0  0  0
   -0.5232   -1.1599    1.2171 C   0  0  2  0  0  0  0  0  0  0  0  0
   -1.5205   -2.0641    0.8944 O   0  0  0  0  0  0  0  0  0  0  0  0
    1.8707   -0.0830   -0.9436 N   0  0  0  0  0  0  0  0  0  0  0  0
    1.8104    1.1564   -1.4617 C   0  0  0  0  0  0  0  0  0  0  0  0
    3.0378    1.7268   -1.4904 N   0  0  0  0  0  0  0  0  0  0  0  0
    3.9053    0.8417   -0.9827 C   0  0  0  0  0  0  0  0  0  0  0  0
    5.2666    0.9089   -0.7827 C   0  0  0  0  0  0  0  0  0  0  0  0
    6.0687    2.0336   -1.1097 N   0  0  0  0  0  0  0  0  0  0  0  0
    5.8610   -0.1672   -0.2423 N   0  0  0  0  0  0  0  0  0  0  0  0
    5.1556   -1.2701    0.0918 C   0  0  0  0  0  0  0  0  0  0  0  0
    5.9984   -2.6528    0.7994 Cl  0  0  0  0  0  0  0  0  0  0  0  0
    3.8287   -1.3217   -0.1087 N   0  0  0  0  0  0  0  0  0  0  0  0
    3.1769   -0.2843   -0.6429 C   0  0  0  0  0  0  0  0  0  0  0  0
   -6.5617    2.6141    0.4468 H   0  0  0  0  0  0  0  0  0  0  0  0
   -7.2643    1.0886    1.0480 H   0  0  0  0  0  0  0  0  0  0  0  0
   -4.7954   -1.1656   -2.5842 H   0  0  0  0  0  0  0  0  0  0  0  0
   -1.7475    1.8487    2.3566 H   0  0  0  0  0  0  0  0  0  0  0  0
    0.0588    0.8386    0.7804 H   0  0  0  0  0  0  0  0  0  0  0  0
    0.8629   -1.7850   -1.5365 H   0  0  0  0  0  0  0  0  0  0  0  0
    1.5917   -1.1764    1.1934 H   0  0  0  0  0  0  0  0  0  0  0  0
    1.6027   -3.3169    1.1736 H   0  0  0  0  0  0  0  0  0  0  0  0
   -0.4226   -0.9563    2.2859 H   0  0  0  0  0  0  0  0  0  0  0  0
   -1.1509   -2.8666    0.4477 H   0  0  0  0  0  0  0  0  0  0  0  0
    0.8676    1.5997   -1.8010 H   0  0  0  0  0  0  0  0  0  0  0  0
    6.0989    2.4189   -2.0802 H   0  0  0  0  0  0  0  0  0  0  0  0
    6.6611    2.5258   -0.4048 H   0  0  0  0  0  0  0  0  0  0  0  0
  1  2  1  0
  2  3  2  0
  3  4  1  0
  4  5  2  0
  5  6  1  0
  6  7  1  0
  7  8  1  0
  8  9  2  0
  9 10  1  0
  7 11  1  0
 11 12  1  0
 12 13  1  0
 13 14  1  0
 14 15  1  0
 14 16  1  0
 16 17  1  0
 13 18  1  0
 18 19  1  0
 19 20  2  0
 20 21  1  0
 21 22  2  0
 22 23  1  0
 22 24  1  0
 24 25  2  0
 25 26  1  0
 25 27  1  0
 27 28  2  0
 10  2  1  0
 16 11  1  0
 28 18  1  0
 10  6  2  0
 28 21  1  0
  1 29  1  0
  1 30  1  0
  4 31  1  0
  8 32  1  0
 11 33  1  1
 13 34  1  6
 14 35  1  1
 15 36  1  0
 16 37  1  1
 17 38  1  0
 19 39  1  0
 23 40  1  0
 23 41  1  0
M  END
$$$$
[H]c1c([H])c(C(=O)N2C([H])([H])C([H])([H])C([H])(N3C([H])([H])C([H])([H])N(S(=O)(=O)c4c([H])c([H])c(OC([H])([H])[H])c([H])c4[H])C([H])([H])C3([H])[H])C([H])([H])C2([H])[H])c(Cl)c([H])c1Cl
     RDKit          3D

 60 63  0  0  0  0  0  0  0  0999 V2000
   -8.0487    1.5571   -1.1532 C   0  0  0  0  0  0  0  0  0  0  0  0
   -7.3175    1.9465   -0.0092 O   0  0  0  0  0  0  0  0  0  0  0  0
   -6.3753    1.0919    0.5104 C   0  0  0  0  0  0  0  0  0  0  0  0
   -6.1509   -0.1286   -0.0805 C   0  0  0  0  0  0  0  0  0  0  0  0
   -5.2028   -0.9759    0.4511 C   0  0  0  0  0  0  0  0  0  0  0  0
   -4.4835   -0.6151    1.5594 C   0  0  0  0  0  0  0  0  0  0  0  0
   -4.7117    0.6074    2.1472 C   0  0  0  0  0  0  0  0  0  0  0  0
   -5.6582    1.4625    1.6233 C   0  0  0  0  0  0  0  0  0  0  0  0
   -3.2675   -1.6613    2.2668 S   0  0  0  0  0  0  0  0  0  0  0  0
   -3.6373   -3.1024    2.1383 O   0  0  0  0  0  0  0  0  0  0  0  0
   -3.1881   -1.3497    3.7372 O   0  0  0  0  0  0  0  0  0  0  0  0
   -1.7014   -1.3975    1.6085 N   0  0  0  0  0  0  0  0  0  0  0  0
   -1.6350   -1.6611    0.2161 C   0  0  0  0  0  0  0  0  0  0  0  0
   -0.7222   -0.8491   -0.5988 C   0  0  0  0  0  0  0  0  0  0  0  0
    0.4071   -0.2709    0.0640 N   0  0  0  0  0  0  0  0  0  0  0  0
    0.2430   -0.0441    1.4561 C   0  0  0  0  0  0  0  0  0  0  0  0
   -1.2247   -0.0855    1.8901 C   0  0  0  0  0  0  0  0  0  0  0  0
    0.8332    0.8622   -0.7164 C   0  0  0  0  0  0  0  0  0  0  0  0
    2.0519    1.5675   -0.2683 C   0  0  0  0  0  0  0  0  0  0  0  0
    3.3578    1.0784   -0.7791 C   0  0  0  0  0  0  0  0  0  0  0  0
    3.3121   -0.1479   -1.5327 N   0  0  0  0  0  0  0  0  0  0  0  0
    2.1691   -0.5228   -2.3427 C   0  0  0  0  0  0  0  0  0  0  0  0
    1.0267    0.4484   -2.1569 C   0  0  0  0  0  0  0  0  0  0  0  0
    4.4230   -1.0126   -1.4861 C   0  0  0  0  0  0  0  0  0  0  0  0
    4.4011   -2.0845   -2.1294 O   0  0  0  0  0  0  0  0  0  0  0  0
    5.6196   -0.6901   -0.6971 C   0  0  0  0  0  0  0  0  0  0  0  0
    5.7392   -1.0757    0.6155 C   0  0  0  0  0  0  0  0  0  0  0  0
    6.8828   -0.7454    1.3097 C   0  0  0  0  0  0  0  0  0  0  0  0
    7.9315   -0.0414    0.7616 C   0  0  0  0  0  0  0  0  0  0  0  0
    9.3366    0.3253    1.7347 Cl  0  0  0  0  0  0  0  0  0  0  0  0
    7.7896    0.3347   -0.5561 C   0  0  0  0  0  0  0  0  0  0  0  0
    6.6490    0.0150   -1.2766 C   0  0  0  0  0  0  0  0  0  0  0  0
    6.5397    0.5273   -2.9470 Cl  0  0  0  0  0  0  0  0  0  0  0  0
   -8.6182    0.6414   -0.9153 H   0  0  0  0  0  0  0  0  0  0  0  0
   -7.3414    1.2657   -1.9811 H   0  0  0  0  0  0  0  0  0  0  0  0
   -8.6898    2.4011   -1.4801 H   0  0  0  0  0  0  0  0  0  0  0  0
   -6.7177   -0.4367   -0.9702 H   0  0  0  0  0  0  0  0  0  0  0  0
   -5.0365   -1.9447   -0.0316 H   0  0  0  0  0  0  0  0  0  0  0  0
   -4.1660    0.9398    3.0306 H   0  0  0  0  0  0  0  0  0  0  0  0
   -5.8612    2.4438    2.0713 H   0  0  0  0  0  0  0  0  0  0  0  0
   -2.6816   -1.5757   -0.1959 H   0  0  0  0  0  0  0  0  0  0  0  0
   -1.4107   -2.7653    0.1042 H   0  0  0  0  0  0  0  0  0  0  0  0
   -0.3425   -1.4780   -1.4298 H   0  0  0  0  0  0  0  0  0  0  0  0
   -1.2821   -0.0108   -1.0987 H   0  0  0  0  0  0  0  0  0  0  0  0
    0.6214    0.8902    1.8663 H   0  0  0  0  0  0  0  0  0  0  0  0
    0.7361   -0.8795    2.0110 H   0  0  0  0  0  0  0  0  0  0  0  0
   -1.7930    0.7268    1.4356 H   0  0  0  0  0  0  0  0  0  0  0  0
   -1.1997    0.0395    3.0107 H   0  0  0  0  0  0  0  0  0  0  0  0
   -0.0108    1.5995   -0.7377 H   0  0  0  0  0  0  0  0  0  0  0  0
    1.9431    2.6484   -0.6061 H   0  0  0  0  0  0  0  0  0  0  0  0
    2.1439    1.6767    0.8367 H   0  0  0  0  0  0  0  0  0  0  0  0
    3.7990    1.8404   -1.4716 H   0  0  0  0  0  0  0  0  0  0  0  0
    4.1206    0.9664    0.0271 H   0  0  0  0  0  0  0  0  0  0  0  0
    2.4922   -0.4445   -3.4028 H   0  0  0  0  0  0  0  0  0  0  0  0
    1.9230   -1.5693   -2.1435 H   0  0  0  0  0  0  0  0  0  0  0  0
    1.3544    1.3930   -2.6872 H   0  0  0  0  0  0  0  0  0  0  0  0
    0.1264    0.0812   -2.6461 H   0  0  0  0  0  0  0  0  0  0  0  0
    4.9277   -1.6399    1.0955 H   0  0  0  0  0  0  0  0  0  0  0  0
    6.9575   -1.0651    2.3594 H   0  0  0  0  0  0  0  0  0  0  0  0
    8.6176    0.8927   -0.9957 H   0  0  0  0  0  0  0  0  0  0  0  0
  1  2  1  0
  2  3  1  0
  3  4  2  0
  4  5  1  0
  5  6  2  0
  6  7  1  0
  7  8  2  0
  6  9  1  0
  9 10  2  0
  9 11  2  0
  9 12  1  0
 12 13  1  0
 13 14  1  0
 14 15  1  0
 15 16  1  0
 16 17  1  0
 15 18  1  0
 18 19  1  0
 19 20  1  0
 20 21  1  0
 21 22  1  0
 22 23  1  0
 21 24  1  0
 24 25  2  0
 24 26  1  0
 26 27  2  0
 27 28  1  0
 28 29  2  0
 29 30  1  0
 29 31  1  0
 31 32  2  0
 32 33  1  0
  8  3  1  0
 17 12  1  0
 23 18  1  0
 32 26  1  0
  1 34  1  0
  1 35  1  0
  1 36  1  0
  4 37  1  0
  5 38  1  0
  7 39  1  0
  8 40  1  0
 13 41  1  0
 13 42  1  0
 14 43  1  0
 14 44  1  0
 16 45  1  0
 16 46  1  0
 17 47  1  0
 17 48  1  0
 18 49  1  0
 19 50  1  0
 19 51  1  0
 20 52  1  0
 20 53  1  0
 22 54  1  0
 22 55  1  0
 23 56  1  0
 23 57  1  0
 27 58  1  0
 28 59  1  0
 31 60  1  0
M  END
$$$$
[H]c1nc(N([H])[H])c2c(C([H])([H])N3C([H])([H])C([H])([H])N(C([H])([H])[H])C([H])([H])C3([H])[H])c(-c3sc4c(OC([H])([H])[H])c([H])c(C([H])([H])[H])c([H])c4c3[H])c(=O)n([H])c2n1
     RDKit          3D

 58 62  0  0  0  0  0  0  0  0999 V2000
   -7.1292   -0.7181    1.5647 C   0  0  0  0  0  0  0  0  0  0  0  0
   -5.7882   -0.8486    1.2557 O   0  0  0  0  0  0  0  0  0  0  0  0
   -5.0951   -0.2729    0.2101 C   0  0  0  0  0  0  0  0  0  0  0  0
   -5.6439    0.5580   -0.7332 C   0  0  0  0  0  0  0  0  0  0  0  0
   -4.7945    1.0356   -1.7001 C   0  0  0  0  0  0  0  0  0  0  0  0
   -5.4145    1.9447   -2.7274 C   0  0  0  0  0  0  0  0  0  0  0  0
   -3.4678    0.7200   -1.7489 C   0  0  0  0  0  0  0  0  0  0  0  0
   -2.8758   -0.1324   -0.7916 C   0  0  0  0  0  0  0  0  0  0  0  0
   -1.5732   -0.5393   -0.7094 C   0  0  0  0  0  0  0  0  0  0  0  0
   -1.1983   -1.3576    0.2784 C   0  0  0  0  0  0  0  0  0  0  0  0
   -2.7278   -1.5644    1.1192 S   0  0  0  0  0  0  0  0  0  0  0  0
   -3.7253   -0.5958    0.1555 C   0  0  0  0  0  0  0  0  0  0  0  0
   -0.0296   -2.0911    0.7485 C   0  0  0  0  0  0  0  0  0  0  0  0
    1.3216   -1.6574    0.4787 C   0  0  0  0  0  0  0  0  0  0  0  0
    1.4387   -0.3808   -0.1149 C   0  0  0  0  0  0  0  0  0  0  0  0
    2.4285    0.5967   -0.2654 N   0  0  0  0  0  0  0  0  0  0  0  0
    1.8723    1.6036   -1.2288 C   0  0  0  0  0  0  0  0  0  0  0  0
    3.0501    2.4470   -1.6542 C   0  0  0  0  0  0  0  0  0  0  0  0
    4.0312    2.4861   -0.6101 N   0  0  0  0  0  0  0  0  0  0  0  0
    4.8951    3.6249   -0.8089 C   0  0  0  0  0  0  0  0  0  0  0  0
    3.4227    2.6100    0.7058 C   0  0  0  0  0  0  0  0  0  0  0  0
    2.4855    1.4568    0.9725 C   0  0  0  0  0  0  0  0  0  0  0  0
    2.3169   -2.4847    0.9305 C   0  0  0  0  0  0  0  0  0  0  0  0
    3.6372   -2.2760    0.6690 C   0  0  0  0  0  0  0  0  0  0  0  0
    4.1223   -1.3267   -0.2463 N   0  0  0  0  0  0  0  0  0  0  0  0
    4.6092   -3.1677    1.0967 N   0  0  0  0  0  0  0  0  0  0  0  0
    4.2731   -4.2632    1.7709 C   0  0  0  0  0  0  0  0  0  0  0  0
    2.9848   -4.5114    2.0386 N   0  0  0  0  0  0  0  0  0  0  0  0
    2.0100   -3.6823    1.6511 C   0  0  0  0  0  0  0  0  0  0  0  0
    0.7399   -4.0150    1.8685 N   0  0  0  0  0  0  0  0  0  0  0  0
   -0.2363   -3.2762    1.4456 C   0  0  0  0  0  0  0  0  0  0  0  0
   -1.4699   -3.6004    1.6465 O   0  0  0  0  0  0  0  0  0  0  0  0
   -7.3637   -0.9176    2.6323 H   0  0  0  0  0  0  0  0  0  0  0  0
   -7.4156    0.3571    1.3697 H   0  0  0  0  0  0  0  0  0  0  0  0
   -7.7591   -1.3154    0.8784 H   0  0  0  0  0  0  0  0  0  0  0  0
   -6.6870    0.7918   -0.6758 H   0  0  0  0  0  0  0  0  0  0  0  0
   -4.6527    2.5412   -3.2598 H   0  0  0  0  0  0  0  0  0  0  0  0
   -6.1579    2.6015   -2.2279 H   0  0  0  0  0  0  0  0  0  0  0  0
   -5.9832    1.2729   -3.4010 H   0  0  0  0  0  0  0  0  0  0  0  0
   -2.8969    1.1583   -2.5591 H   0  0  0  0  0  0  0  0  0  0  0  0
   -0.8609   -0.1822   -1.5057 H   0  0  0  0  0  0  0  0  0  0  0  0
    0.6109    0.2383    0.2700 H   0  0  0  0  0  0  0  0  0  0  0  0
    0.9995   -0.4995   -1.2340 H   0  0  0  0  0  0  0  0  0  0  0  0
    1.4785    0.9995   -2.0741 H   0  0  0  0  0  0  0  0  0  0  0  0
    1.1111    2.2045   -0.7340 H   0  0  0  0  0  0  0  0  0  0  0  0
    3.4568    2.1160   -2.6114 H   0  0  0  0  0  0  0  0  0  0  0  0
    2.6127    3.4727   -1.8491 H   0  0  0  0  0  0  0  0  0  0  0  0
    4.7341    4.4465   -0.0773 H   0  0  0  0  0  0  0  0  0  0  0  0
    5.9727    3.3379   -0.6777 H   0  0  0  0  0  0  0  0  0  0  0  0
    4.7335    4.0900   -1.8227 H   0  0  0  0  0  0  0  0  0  0  0  0
    2.9081    3.5960    0.7773 H   0  0  0  0  0  0  0  0  0  0  0  0
    4.2415    2.5607    1.4489 H   0  0  0  0  0  0  0  0  0  0  0  0
    2.7684    0.8443    1.8305 H   0  0  0  0  0  0  0  0  0  0  0  0
    1.4745    1.8528    1.1118 H   0  0  0  0  0  0  0  0  0  0  0  0
    3.8691   -1.4277   -1.2465 H   0  0  0  0  0  0  0  0  0  0  0  0
    4.7688   -0.5846    0.0630 H   0  0  0  0  0  0  0  0  0  0  0  0
    5.0007   -4.9824    2.1231 H   0  0  0  0  0  0  0  0  0  0  0  0
    0.5661   -4.8943    2.3971 H   0  0  0  0  0  0  0  0  0  0  0  0
  1  2  1  0
  2  3  1  0
  3  4  2  0
  4  5  1  0
  5  6  1  0
  5  7  2  0
  7  8  1  0
  8  9  1  0
  9 10  2  0
 10 11  1  0
 11 12  1  0
 10 13  1  0
 13 14  2  0
 14 15  1  0
 15 16  1  0
 16 17  1  0
 17 18  1  0
 18 19  1  0
 19 20  1  0
 19 21  1  0
 21 22  1  0
 14 23  1  0
 23 24  2  0
 24 25  1  0
 24 26  1  0
 26 27  2  0
 27 28  1  0
 28 29  2  0
 29 30  1  0
 30 31  1  0
 31 32  2  0
 12  3  1  0
 31 13  1  0
 12  8  2  0
 22 16  1  0
 29 23  1  0
  1 33  1  0
  1 34  1  0
  1 35  1  0
  4 36  1  0
  6 37  1  0
  6 38  1  0
  6 39  1  0
  7 40  1  0
  9 41  1  0
 15 42  1  0
 15 43  1  0
 17 44  1  0
 17 45  1  0
 18 46  1  0
 18 47  1  0
 20 48  1  0
 20 49  1  0
 20 50  1  0
 21 51  1  0
 21 52  1  0
 22 53  1  0
 22 54  1  0
 25 55  1  0
 25 56  1  0
 27 57  1  0
 30 58  1  0
M  END
$$$$
[H]ON([H])C(=O)[C@@]1([H])N(S(=O)(=O)c2c([H])c([H])c(OC([H])([H])[H])c([H])c2[H])C([H])([H])c2c([H])c([H])c([H])c([H])c2C1([H])[H]
     RDKit          3D

 43 45  0  0  0  0  0  0  0  0999 V2000
    5.6426   -1.1770    1.7594 C   0  0  0  0  0  0  0  0  0  0  0  0
    5.4207   -0.3418    0.6454 O   0  0  0  0  0  0  0  0  0  0  0  0
    4.1937   -0.0387    0.1046 C   0  0  0  0  0  0  0  0  0  0  0  0
    4.1380    0.8050   -0.9949 C   0  0  0  0  0  0  0  0  0  0  0  0
    2.9220    1.1146   -1.5419 C   0  0  0  0  0  0  0  0  0  0  0  0
    1.7205    0.6172   -1.0451 C   0  0  0  0  0  0  0  0  0  0  0  0
    1.7811   -0.2125    0.0362 C   0  0  0  0  0  0  0  0  0  0  0  0
    3.0261   -0.5346    0.6049 C   0  0  0  0  0  0  0  0  0  0  0  0
    0.2703    1.1231   -1.8722 S   0  0  0  0  0  0  0  0  0  0  0  0
    0.2973    2.6245   -1.8757 O   0  0  0  0  0  0  0  0  0  0  0  0
    0.4915    0.7060   -3.3299 O   0  0  0  0  0  0  0  0  0  0  0  0
   -1.0938    0.3984   -1.3104 N   0  0  0  0  0  0  0  0  0  0  0  0
   -1.2395   -0.9972   -1.3896 C   0  0  0  0  0  0  0  0  0  0  0  0
   -2.0775   -1.5133   -0.2724 C   0  0  0  0  0  0  0  0  0  0  0  0
   -2.4727   -2.8603   -0.3721 C   0  0  0  0  0  0  0  0  0  0  0  0
   -3.2453   -3.4482    0.6051 C   0  0  0  0  0  0  0  0  0  0  0  0
   -3.6101   -2.6661    1.6750 C   0  0  0  0  0  0  0  0  0  0  0  0
   -3.2353   -1.3376    1.7989 C   0  0  0  0  0  0  0  0  0  0  0  0
   -2.4709   -0.7726    0.8211 C   0  0  0  0  0  0  0  0  0  0  0  0
   -2.0239    0.6795    0.8388 C   0  0  0  0  0  0  0  0  0  0  0  0
   -2.0976    1.0583   -0.6147 C   0  0  1  0  0  0  0  0  0  0  0  0
   -2.2956    2.5150   -0.8765 C   0  0  0  0  0  0  0  0  0  0  0  0
   -2.5124    2.7734   -2.0909 O   0  0  0  0  0  0  0  0  0  0  0  0
   -2.2351    3.4347    0.1204 N   0  0  0  0  0  0  0  0  0  0  0  0
   -2.1778    4.3080    1.0666 O   0  0  0  0  0  0  0  0  0  0  0  0
    4.7905   -1.0888    2.4646 H   0  0  0  0  0  0  0  0  0  0  0  0
    6.5648   -0.8709    2.3222 H   0  0  0  0  0  0  0  0  0  0  0  0
    5.7283   -2.2414    1.4565 H   0  0  0  0  0  0  0  0  0  0  0  0
    5.0508    1.2057   -1.4035 H   0  0  0  0  0  0  0  0  0  0  0  0
    2.9411    1.7855   -2.4013 H   0  0  0  0  0  0  0  0  0  0  0  0
    0.8732   -0.6083    0.4318 H   0  0  0  0  0  0  0  0  0  0  0  0
    3.0435   -1.1943    1.4612 H   0  0  0  0  0  0  0  0  0  0  0  0
   -1.7855   -1.2890   -2.3422 H   0  0  0  0  0  0  0  0  0  0  0  0
   -0.2691   -1.5543   -1.4335 H   0  0  0  0  0  0  0  0  0  0  0  0
   -2.1729   -3.4712   -1.2245 H   0  0  0  0  0  0  0  0  0  0  0  0
   -3.5407   -4.5014    0.5008 H   0  0  0  0  0  0  0  0  0  0  0  0
   -4.2150   -3.0997    2.4506 H   0  0  0  0  0  0  0  0  0  0  0  0
   -3.5263   -0.7180    2.6423 H   0  0  0  0  0  0  0  0  0  0  0  0
   -0.9938    0.6293    1.2417 H   0  0  0  0  0  0  0  0  0  0  0  0
   -2.7108    1.2795    1.4679 H   0  0  0  0  0  0  0  0  0  0  0  0
   -3.0858    0.5770   -0.9692 H   0  0  0  0  0  0  0  0  0  0  0  0
   -2.4913    4.4996   -0.7030 H   0  0  0  0  0  0  0  0  0  0  0  0
   -1.3174    4.4026    1.5473 H   0  0  0  0  0  0  0  0  0  0  0  0
  1  2  1  0
  2  3  1  0
  3  4  2  0
  4  5  1  0
  5  6  2  0
  6  7  1  0
  7  8  2  0
  6  9  1  0
  9 10  2  0
  9 11  2  0
  9 12  1  0
 12 13  1  0
 13 14  1  0
 14 15  2  0
 15 16  1  0
 16 17  2  0
 17 18  1  0
 18 19  2  0
 19 20  1  0
 20 21  1  0
 21 22  1  0
 22 23  2  0
 22 24  1  0
 24 25  1  0
  8  3  1  0
 21 12  1  0
 19 14  1  0
  1 26  1  0
  1 27  1  0
  1 28  1  0
  4 29  1  0
  5 30  1  0
  7 31  1  0
  8 32  1  0
 13 33  1  0
 13 34  1  0
 15 35  1  0
 16 36  1  0
 17 37  1  0
 18 38  1  0
 20 39  1  0
 20 40  1  0
 21 41  1  6
 24 42  1  0
 25 43  1  0
M  END
$$$$
[H]OC([H])([H])[C@@]1([H])O[C@]([H])(n2c([H])nc3c(N([H])C([H])([H])c4c([H])c([H])c([H])c(Cl)c4[H])c([H])c([H])c([H])c32)[C@]([H])(O[H])[C@]1([H])O[H]
     RDKit          3D

 47 50  0  0  0  0  0  0  0  0999 V2000
   -6.1884   -2.3981    0.3378 O   0  0  0  0  0  0  0  0  0  0  0  0
   -4.9034   -2.0919    0.8363 C   0  0  0  0  0  0  0  0  0  0  0  0
   -4.8696   -0.5858    1.0975 C   0  0  1  0  0  0  0  0  0  0  0  0
   -3.6173   -0.2393    1.5937 O   0  0  0  0  0  0  0  0  0  0  0  0
   -2.8689   -0.0203    0.4740 C   0  0  1  0  0  0  0  0  0  0  0  0
   -3.7796    0.9357   -0.3096 C   0  0  2  0  0  0  0  0  0  0  0  0
   -3.9720    2.1131    0.3995 O   0  0  0  0  0  0  0  0  0  0  0  0
   -5.0761    0.1176   -0.2129 C   0  0  2  0  0  0  0  0  0  0  0  0
   -6.1925    0.9432   -0.2243 O   0  0  0  0  0  0  0  0  0  0  0  0
   -1.5818    0.5744    0.7209 N   0  0  0  0  0  0  0  0  0  0  0  0
   -1.1604    1.3726    1.7040 C   0  0  0  0  0  0  0  0  0  0  0  0
    0.1391    1.6891    1.5284 N   0  0  0  0  0  0  0  0  0  0  0  0
    0.5344    1.0697    0.4049 C   0  0  0  0  0  0  0  0  0  0  0  0
    1.7795    1.0565   -0.2364 C   0  0  0  0  0  0  0  0  0  0  0  0
    2.8554    1.7972    0.3141 N   0  0  0  0  0  0  0  0  0  0  0  0
    4.1899    1.8067   -0.2276 C   0  0  0  0  0  0  0  0  0  0  0  0
    4.8681    0.4828   -0.1295 C   0  0  0  0  0  0  0  0  0  0  0  0
    4.3720   -0.4892    0.7202 C   0  0  0  0  0  0  0  0  0  0  0  0
    4.9878   -1.7173    0.8200 C   0  0  0  0  0  0  0  0  0  0  0  0
    6.1073   -1.9758    0.0651 C   0  0  0  0  0  0  0  0  0  0  0  0
    6.6336   -1.0403   -0.7910 C   0  0  0  0  0  0  0  0  0  0  0  0
    8.0491   -1.4100   -1.7252 Cl  0  0  0  0  0  0  0  0  0  0  0  0
    5.9907    0.1785   -0.8651 C   0  0  0  0  0  0  0  0  0  0  0  0
    1.9103    0.3237   -1.3980 C   0  0  0  0  0  0  0  0  0  0  0  0
    0.8506   -0.3827   -1.9248 C   0  0  0  0  0  0  0  0  0  0  0  0
   -0.3583   -0.3487   -1.2703 C   0  0  0  0  0  0  0  0  0  0  0  0
   -0.5231    0.3852   -0.0906 C   0  0  0  0  0  0  0  0  0  0  0  0
   -6.1919   -3.3631    0.1062 H   0  0  0  0  0  0  0  0  0  0  0  0
   -4.6496   -2.6803    1.7171 H   0  0  0  0  0  0  0  0  0  0  0  0
   -4.2103   -2.3698    0.0172 H   0  0  0  0  0  0  0  0  0  0  0  0
   -5.6802   -0.3454    1.8305 H   0  0  0  0  0  0  0  0  0  0  0  0
   -2.7671   -0.9459   -0.0972 H   0  0  0  0  0  0  0  0  0  0  0  0
   -3.4508    1.0713   -1.3377 H   0  0  0  0  0  0  0  0  0  0  0  0
   -3.7880    2.9072   -0.1604 H   0  0  0  0  0  0  0  0  0  0  0  0
   -5.0523   -0.5628   -1.0903 H   0  0  0  0  0  0  0  0  0  0  0  0
   -6.0511    1.6964    0.3946 H   0  0  0  0  0  0  0  0  0  0  0  0
   -1.7921    1.7095    2.5231 H   0  0  0  0  0  0  0  0  0  0  0  0
    2.6866    2.3800    1.1693 H   0  0  0  0  0  0  0  0  0  0  0  0
    4.1757    2.0460   -1.3242 H   0  0  0  0  0  0  0  0  0  0  0  0
    4.8122    2.6012    0.2273 H   0  0  0  0  0  0  0  0  0  0  0  0
    3.4985   -0.2896    1.3105 H   0  0  0  0  0  0  0  0  0  0  0  0
    4.6070   -2.4655    1.4733 H   0  0  0  0  0  0  0  0  0  0  0  0
    6.5937   -2.9461    0.1441 H   0  0  0  0  0  0  0  0  0  0  0  0
    6.4077    0.9144   -1.5409 H   0  0  0  0  0  0  0  0  0  0  0  0
    2.8914    0.3247   -1.9005 H   0  0  0  0  0  0  0  0  0  0  0  0
    0.9907   -0.9387   -2.8260 H   0  0  0  0  0  0  0  0  0  0  0  0
   -1.2067   -0.8900   -1.6557 H   0  0  0  0  0  0  0  0  0  0  0  0
  1  2  1  0
  2  3  1  0
  3  4  1  0
  4  5  1  0
  5  6  1  0
  6  7  1  0
  6  8  1  0
  8  9  1  0
  5 10  1  0
 10 11  1  0
 11 12  2  0
 12 13  1  0
 13 14  2  0
 14 15  1  0
 15 16  1  0
 16 17  1  0
 17 18  2  0
 18 19  1  0
 19 20  2  0
 20 21  1  0
 21 22  1  0
 21 23  2  0
 14 24  1  0
 24 25  2  0
 25 26  1  0
 26 27  2  0
  8  3  1  0
 27 10  1  0
 27 13  1  0
 23 17  1  0
  1 28  1  0
  2 29  1  0
  2 30  1  0
  3 31  1  1
  5 32  1  6
  6 33  1  6
  7 34  1  0
  8 35  1  6
  9 36  1  0
 11 37  1  0
 15 38  1  0
 16 39  1  0
 16 40  1  0
 18 41  1  0
 19 42  1  0
 20 43  1  0
 23 44  1  0
 24 45  1  0
 25 46  1  0
 26 47  1  0
M  END
$$$$
[H]c1nc(N([H])c2c([H])c([H])c(N3C([H])([H])C([H])([H])C(C([H])([H])[H])(C([H])([H])[H])C([H])([H])C3([H])[H])c([H])c2OC([H])([H])[H])nc(N([H])c2c([H])c([H])c([H])c([H])c2S(=O)(=O)C([H])(C([H])([H])[H])C([H])([H])[H])c1Cl
     RDKit          3D

 71 74  0  0  0  0  0  0  0  0999 V2000
    1.9944   -3.7904    0.5854 C   0  0  0  0  0  0  0  0  0  0  0  0
    1.2278   -2.7107    0.1386 O   0  0  0  0  0  0  0  0  0  0  0  0
    1.8521   -1.5385   -0.2350 C   0  0  0  0  0  0  0  0  0  0  0  0
    3.2190   -1.4345   -0.1681 C   0  0  0  0  0  0  0  0  0  0  0  0
    3.9146   -0.2883   -0.5267 C   0  0  0  0  0  0  0  0  0  0  0  0
    3.1447    0.7558   -0.9606 C   0  0  0  0  0  0  0  0  0  0  0  0
    1.7440    0.6537   -1.0311 C   0  0  0  0  0  0  0  0  0  0  0  0
    1.0600   -0.4700   -0.6796 C   0  0  0  0  0  0  0  0  0  0  0  0
   -0.3188   -0.6803   -0.7095 N   0  0  0  0  0  0  0  0  0  0  0  0
   -1.3023    0.2466   -1.1182 C   0  0  0  0  0  0  0  0  0  0  0  0
   -1.0645    1.4886   -1.5468 N   0  0  0  0  0  0  0  0  0  0  0  0
   -2.0232    2.3225   -1.9207 C   0  0  0  0  0  0  0  0  0  0  0  0
   -3.3413    1.9438   -1.8860 C   0  0  0  0  0  0  0  0  0  0  0  0
   -4.6232    3.0142   -2.3829 Cl  0  0  0  0  0  0  0  0  0  0  0  0
   -3.6291    0.6314   -1.4355 C   0  0  0  0  0  0  0  0  0  0  0  0
   -4.9895    0.2657   -1.3576 N   0  0  0  0  0  0  0  0  0  0  0  0
   -5.5057   -0.9834   -1.0027 C   0  0  0  0  0  0  0  0  0  0  0  0
   -4.7086   -2.1166   -1.1747 C   0  0  0  0  0  0  0  0  0  0  0  0
   -5.2495   -3.3642   -0.9514 C   0  0  0  0  0  0  0  0  0  0  0  0
   -6.5465   -3.5462   -0.5655 C   0  0  0  0  0  0  0  0  0  0  0  0
   -7.3178   -2.4335   -0.3991 C   0  0  0  0  0  0  0  0  0  0  0  0
   -6.8174   -1.1421   -0.6106 C   0  0  0  0  0  0  0  0  0  0  0  0
   -7.8588    0.2064   -0.2546 S   0  0  0  0  0  0  0  0  0  0  0  0
   -7.9605    1.2063   -1.3775 O   0  0  0  0  0  0  0  0  0  0  0  0
   -9.3083   -0.3468   -0.1375 O   0  0  0  0  0  0  0  0  0  0  0  0
   -7.4599    1.0523    1.2295 C   0  0  0  0  0  0  0  0  0  0  0  0
   -8.6147    2.0679    1.4515 C   0  0  0  0  0  0  0  0  0  0  0  0
   -6.2109    1.8398    1.2567 C   0  0  0  0  0  0  0  0  0  0  0  0
   -2.6081   -0.1147   -1.0885 N   0  0  0  0  0  0  0  0  0  0  0  0
    5.3189   -0.2183   -0.4263 N   0  0  0  0  0  0  0  0  0  0  0  0
    6.0574    0.7540   -1.1968 C   0  0  0  0  0  0  0  0  0  0  0  0
    6.7097    1.7364   -0.2564 C   0  0  0  0  0  0  0  0  0  0  0  0
    7.4724    1.0476    0.8473 C   0  0  0  0  0  0  0  0  0  0  0  0
    8.8797    0.7405    0.3248 C   0  0  0  0  0  0  0  0  0  0  0  0
    7.6547    2.0679    1.9579 C   0  0  0  0  0  0  0  0  0  0  0  0
    6.8118   -0.1479    1.4206 C   0  0  0  0  0  0  0  0  0  0  0  0
    6.1267   -1.0588    0.4318 C   0  0  0  0  0  0  0  0  0  0  0  0
    1.3448   -4.6017    0.9855 H   0  0  0  0  0  0  0  0  0  0  0  0
    2.6037   -4.2550   -0.2221 H   0  0  0  0  0  0  0  0  0  0  0  0
    2.6890   -3.5135    1.4181 H   0  0  0  0  0  0  0  0  0  0  0  0
    3.8368   -2.2779    0.1764 H   0  0  0  0  0  0  0  0  0  0  0  0
    3.6052    1.7025   -1.2581 H   0  0  0  0  0  0  0  0  0  0  0  0
    1.2189    1.5177   -1.3816 H   0  0  0  0  0  0  0  0  0  0  0  0
   -0.7252   -1.6293   -0.3991 H   0  0  0  0  0  0  0  0  0  0  0  0
   -1.8423    3.3382   -2.2723 H   0  0  0  0  0  0  0  0  0  0  0  0
   -5.7029    1.0016   -1.6199 H   0  0  0  0  0  0  0  0  0  0  0  0
   -3.6800   -2.0825   -1.4977 H   0  0  0  0  0  0  0  0  0  0  0  0
   -4.6347   -4.2436   -1.0829 H   0  0  0  0  0  0  0  0  0  0  0  0
   -6.9542   -4.5442   -0.3957 H   0  0  0  0  0  0  0  0  0  0  0  0
   -8.3489   -2.5436   -0.0940 H   0  0  0  0  0  0  0  0  0  0  0  0
   -7.4880    0.3390    2.1139 H   0  0  0  0  0  0  0  0  0  0  0  0
   -9.5465    1.4558    1.4501 H   0  0  0  0  0  0  0  0  0  0  0  0
   -8.5757    2.7350    0.5772 H   0  0  0  0  0  0  0  0  0  0  0  0
   -8.4537    2.5761    2.4150 H   0  0  0  0  0  0  0  0  0  0  0  0
   -6.2164    2.5512    2.1452 H   0  0  0  0  0  0  0  0  0  0  0  0
   -5.3058    1.2066    1.4598 H   0  0  0  0  0  0  0  0  0  0  0  0
   -6.0496    2.4719    0.3626 H   0  0  0  0  0  0  0  0  0  0  0  0
    5.4181    1.2985   -1.9028 H   0  0  0  0  0  0  0  0  0  0  0  0
    6.8320    0.2166   -1.8197 H   0  0  0  0  0  0  0  0  0  0  0  0
    7.4397    2.3290   -0.8452 H   0  0  0  0  0  0  0  0  0  0  0  0
    5.9479    2.4349    0.1243 H   0  0  0  0  0  0  0  0  0  0  0  0
    9.5671    1.5905    0.5216 H   0  0  0  0  0  0  0  0  0  0  0  0
    8.8622    0.6158   -0.7916 H   0  0  0  0  0  0  0  0  0  0  0  0
    9.2954   -0.1423    0.8369 H   0  0  0  0  0  0  0  0  0  0  0  0
    8.3148    1.6209    2.7328 H   0  0  0  0  0  0  0  0  0  0  0  0
    6.6543    2.2193    2.4306 H   0  0  0  0  0  0  0  0  0  0  0  0
    8.0042    3.0391    1.5860 H   0  0  0  0  0  0  0  0  0  0  0  0
    7.6142   -0.7751    1.9088 H   0  0  0  0  0  0  0  0  0  0  0  0
    6.1032    0.0948    2.2467 H   0  0  0  0  0  0  0  0  0  0  0  0
    6.8759   -1.6113   -0.1697 H   0  0  0  0  0  0  0  0  0  0  0  0
    5.5671   -1.7908    1.0115 H   0  0  0  0  0  0  0  0  0  0  0  0
  1  2  1  0
  2  3  1  0
  3  4  2  0
  4  5  1  0
  5  6  2  0
  6  7  1  0
  7  8  2  0
  8  9  1  0
  9 10  1  0
 10 11  2  0
 11 12  1  0
 12 13  2  0
 13 14  1  0
 13 15  1  0
 15 16  1  0
 16 17  1  0
 17 18  2  0
 18 19  1  0
 19 20  2  0
 20 21  1  0
 21 22  2  0
 22 23  1  0
 23 24  2  0
 23 25  2  0
 23 26  1  0
 26 27  1  0
 26 28  1  0
 15 29  2  0
  5 30  1  0
 30 31  1  0
 31 32  1  0
 32 33  1  0
 33 34  1  0
 33 35  1  0
 33 36  1  0
 36 37  1  0
  8  3  1  0
 29 10  1  0
 37 30  1  0
 22 17  1  0
  1 38  1  0
  1 39  1  0
  1 40  1  0
  4 41  1  0
  6 42  1  0
  7 43  1  0
  9 44  1  0
 12 45  1  0
 16 46  1  0
 18 47  1  0
 19 48  1  0
 20 49  1  0
 21 50  1  0
 26 51  1  0
 27 52  1  0
 27 53  1  0
 27 54  1  0
 28 55  1  0
 28 56  1  0
 28 57  1  0
 31 58  1  0
 31 59  1  0
 32 60  1  0
 32 61  1  0
 34 62  1  0
 34 63  1  0
 34 64  1  0
 35 65  1  0
 35 66  1  0
 35 67  1  0
 36 68  1  0
 36 69  1  0
 37 70  1  0
 37 71  1  0
M  END
$$$$
[H]c1nc(N([H])c2c([H])c([H])c(N3C([H])([H])C([H])([H])C(C([H])([H])[H])(C([H])([H])[H])C3([H])[H])c([H])c2OC([H])([H])[H])nc(N([H])c2c([H])c([H])c([H])c([H])c2S(=O)(=O)C(F)(F)F)c1Cl
     RDKit          3D

 62 65  0  0  0  0  0  0  0  0999 V2000
   -1.4103   -3.2044    2.0808 C   0  0  0  0  0  0  0  0  0  0  0  0
   -0.7840   -2.2095    1.3198 O   0  0  0  0  0  0  0  0  0  0  0  0
   -1.5326   -1.3096    0.5554 C   0  0  0  0  0  0  0  0  0  0  0  0
   -2.9044   -1.4234    0.5669 C   0  0  0  0  0  0  0  0  0  0  0  0
   -3.6961   -0.5690   -0.1636 C   0  0  0  0  0  0  0  0  0  0  0  0
   -3.0224    0.3883   -0.8915 C   0  0  0  0  0  0  0  0  0  0  0  0
   -1.6421    0.5094   -0.9085 C   0  0  0  0  0  0  0  0  0  0  0  0
   -0.8648   -0.3265   -0.1935 C   0  0  0  0  0  0  0  0  0  0  0  0
    0.5147   -0.3068   -0.1294 N   0  0  0  0  0  0  0  0  0  0  0  0
    1.3826    0.5899   -0.7970 C   0  0  0  0  0  0  0  0  0  0  0  0
    1.0048    1.5763   -1.6086 N   0  0  0  0  0  0  0  0  0  0  0  0
    1.8796    2.3836   -2.2043 C   0  0  0  0  0  0  0  0  0  0  0  0
    3.2319    2.2414   -2.0123 C   0  0  0  0  0  0  0  0  0  0  0  0
    4.3882    3.3006   -2.7934 Cl  0  0  0  0  0  0  0  0  0  0  0  0
    3.6772    1.1988   -1.1518 C   0  0  0  0  0  0  0  0  0  0  0  0
    5.0636    1.0612   -0.9602 N   0  0  0  0  0  0  0  0  0  0  0  0
    5.7677    0.1403   -0.1833 C   0  0  0  0  0  0  0  0  0  0  0  0
    5.1032   -0.8335    0.5361 C   0  0  0  0  0  0  0  0  0  0  0  0
    5.8233   -1.7553    1.3109 C   0  0  0  0  0  0  0  0  0  0  0  0
    7.1986   -1.6885    1.3538 C   0  0  0  0  0  0  0  0  0  0  0  0
    7.8682   -0.7190    0.6379 C   0  0  0  0  0  0  0  0  0  0  0  0
    7.1709    0.1904   -0.1252 C   0  0  0  0  0  0  0  0  0  0  0  0
    7.9933    1.4182   -1.0394 S   0  0  0  0  0  0  0  0  0  0  0  0
    7.5829    2.7588   -0.5202 O   0  0  0  0  0  0  0  0  0  0  0  0
    7.7577    1.3474   -2.5095 O   0  0  0  0  0  0  0  0  0  0  0  0
    9.7613    1.3192   -0.7951 C   0  0  0  0  0  0  0  0  0  0  0  0
   10.1378    1.4943    0.5002 F   0  0  0  0  0  0  0  0  0  0  0  0
   10.2152    0.1716   -1.3748 F   0  0  0  0  0  0  0  0  0  0  0  0
   10.3005    2.3908   -1.5203 F   0  0  0  0  0  0  0  0  0  0  0  0
    2.7277    0.4585   -0.6140 N   0  0  0  0  0  0  0  0  0  0  0  0
   -5.1229   -0.6446   -0.1845 N   0  0  0  0  0  0  0  0  0  0  0  0
   -5.9212   -1.5892    0.5637 C   0  0  0  0  0  0  0  0  0  0  0  0
   -7.0161   -0.6795    1.1369 C   0  0  0  0  0  0  0  0  0  0  0  0
   -7.1240    0.4551    0.1451 C   0  0  0  0  0  0  0  0  0  0  0  0
   -6.8478    1.7929    0.7978 C   0  0  0  0  0  0  0  0  0  0  0  0
   -8.4722    0.4384   -0.5332 C   0  0  0  0  0  0  0  0  0  0  0  0
   -6.0623    0.1556   -0.9191 C   0  0  0  0  0  0  0  0  0  0  0  0
   -0.7300   -3.6965    2.7900 H   0  0  0  0  0  0  0  0  0  0  0  0
   -1.9474   -3.9237    1.4155 H   0  0  0  0  0  0  0  0  0  0  0  0
   -2.1819   -2.6886    2.7108 H   0  0  0  0  0  0  0  0  0  0  0  0
   -3.4074   -2.1989    1.1573 H   0  0  0  0  0  0  0  0  0  0  0  0
   -3.6270    1.0751   -1.4774 H   0  0  0  0  0  0  0  0  0  0  0  0
   -1.2632    1.2914   -1.5130 H   0  0  0  0  0  0  0  0  0  0  0  0
    0.9895   -1.0479    0.4915 H   0  0  0  0  0  0  0  0  0  0  0  0
    1.5733    3.1942   -2.8710 H   0  0  0  0  0  0  0  0  0  0  0  0
    5.6651    1.7662   -1.4894 H   0  0  0  0  0  0  0  0  0  0  0  0
    4.0358   -0.9686    0.5673 H   0  0  0  0  0  0  0  0  0  0  0  0
    5.2609   -2.4942    1.8529 H   0  0  0  0  0  0  0  0  0  0  0  0
    7.7179   -2.4028    1.9514 H   0  0  0  0  0  0  0  0  0  0  0  0
    8.9471   -0.6392    0.6447 H   0  0  0  0  0  0  0  0  0  0  0  0
   -6.3803   -2.2950   -0.1613 H   0  0  0  0  0  0  0  0  0  0  0  0
   -5.3979   -2.0918    1.3760 H   0  0  0  0  0  0  0  0  0  0  0  0
   -7.9630   -1.2368    1.2478 H   0  0  0  0  0  0  0  0  0  0  0  0
   -6.6218   -0.3013    2.1009 H   0  0  0  0  0  0  0  0  0  0  0  0
   -6.5859    1.6013    1.8618 H   0  0  0  0  0  0  0  0  0  0  0  0
   -7.7276    2.4539    0.8021 H   0  0  0  0  0  0  0  0  0  0  0  0
   -5.9629    2.2285    0.3255 H   0  0  0  0  0  0  0  0  0  0  0  0
   -9.2336    1.0277    0.0092 H   0  0  0  0  0  0  0  0  0  0  0  0
   -8.8130   -0.5967   -0.6307 H   0  0  0  0  0  0  0  0  0  0  0  0
   -8.3130    0.8711   -1.5539 H   0  0  0  0  0  0  0  0  0  0  0  0
   -6.5187   -0.5179   -1.6946 H   0  0  0  0  0  0  0  0  0  0  0  0
   -5.6422    1.0687   -1.3381 H   0  0  0  0  0  0  0  0  0  0  0  0
  1  2  1  0
  2  3  1  0
  3  4  2  0
  4  5  1  0
  5  6  2  0
  6  7  1  0
  7  8  2  0
  8  9  1  0
  9 10  1  0
 10 11  2  0
 11 12  1  0
 12 13  2  0
 13 14  1  0
 13 15  1  0
 15 16  1  0
 16 17  1  0
 17 18  2  0
 18 19  1  0
 19 20  2  0
 20 21  1  0
 21 22  2  0
 22 23  1  0
 23 24  2  0
 23 25  2  0
 23 26  1  0
 26 27  1  0
 26 28  1  0
 26 29  1  0
 15 30  2  0
  5 31  1  0
 31 32  1  0
 32 33  1  0
 33 34  1  0
 34 35  1  0
 34 36  1  0
 34 37  1  0
  8  3  1  0
 30 10  1  0
 37 31  1  0
 22 17  1  0
  1 38  1  0
  1 39  1  0
  1 40  1  0
  4 41  1  0
  6 42  1  0
  7 43  1  0
  9 44  1  0
 12 45  1  0
 16 46  1  0
 18 47  1  0
 19 48  1  0
 20 49  1  0
 21 50  1  0
 32 51  1  0
 32 52  1  0
 33 53  1  0
 33 54  1  0
 35 55  1  0
 35 56  1  0
 35 57  1  0
 36 58  1  0
 36 59  1  0
 36 60  1  0
 37 61  1  0
 37 62  1  0
M  END
$$$$
[H]c1c([H])c([H])c(C([H])([H])OC(=O)N([H])[C@]2([H])C([H])([H])C([H])([H])[C@@]([H])(N([H])S(=O)(=O)c3c([H])c([H])c(OC([H])([H])[H])c([H])c3[H])C([H])([H])C2([H])[H])c([H])c1[H]
     RDKit          3D

 55 57  0  0  0  0  0  0  0  0999 V2000
    7.0172    3.2313   -1.2351 C   0  0  0  0  0  0  0  0  0  0  0  0
    5.9092    3.2713   -0.3628 O   0  0  0  0  0  0  0  0  0  0  0  0
    5.4958    2.1240    0.2886 C   0  0  0  0  0  0  0  0  0  0  0  0
    6.1804    0.9519    0.0724 C   0  0  0  0  0  0  0  0  0  0  0  0
    5.7775   -0.1778    0.7104 C   0  0  0  0  0  0  0  0  0  0  0  0
    4.7093   -0.2447    1.5796 C   0  0  0  0  0  0  0  0  0  0  0  0
    4.0306    0.9394    1.7876 C   0  0  0  0  0  0  0  0  0  0  0  0
    4.4192    2.1201    1.1469 C   0  0  0  0  0  0  0  0  0  0  0  0
    4.1995   -1.7116    2.3934 S   0  0  0  0  0  0  0  0  0  0  0  0
    3.5805   -1.2541    3.7036 O   0  0  0  0  0  0  0  0  0  0  0  0
    5.4297   -2.5373    2.6326 O   0  0  0  0  0  0  0  0  0  0  0  0
    3.0641   -2.4902    1.3963 N   0  0  0  0  0  0  0  0  0  0  0  0
    1.8814   -1.8171    1.0988 C   0  0  1  0  0  0  0  0  0  0  0  0
    1.5483   -1.5934   -0.3384 C   0  0  0  0  0  0  0  0  0  0  0  0
    0.2665   -0.7815   -0.5031 C   0  0  0  0  0  0  0  0  0  0  0  0
   -0.9145   -1.4927    0.1238 C   0  0  1  0  0  0  0  0  0  0  0  0
   -0.5914   -1.8352    1.5495 C   0  0  0  0  0  0  0  0  0  0  0  0
    0.7083   -2.5667    1.7256 C   0  0  0  0  0  0  0  0  0  0  0  0
   -2.0707   -0.6313    0.0150 N   0  0  0  0  0  0  0  0  0  0  0  0
   -3.1770   -0.9899   -0.7804 C   0  0  0  0  0  0  0  0  0  0  0  0
   -3.1710   -2.0687   -1.4071 O   0  0  0  0  0  0  0  0  0  0  0  0
   -4.2675   -0.1651   -0.8768 O   0  0  0  0  0  0  0  0  0  0  0  0
   -5.3581   -0.5607   -1.6867 C   0  0  0  0  0  0  0  0  0  0  0  0
   -6.3845    0.5036   -1.6112 C   0  0  0  0  0  0  0  0  0  0  0  0
   -7.3850    0.4214   -0.6915 C   0  0  0  0  0  0  0  0  0  0  0  0
   -8.3404    1.4254   -0.6301 C   0  0  0  0  0  0  0  0  0  0  0  0
   -8.2868    2.4976   -1.4853 C   0  0  0  0  0  0  0  0  0  0  0  0
   -7.2651    2.5700   -2.4157 C   0  0  0  0  0  0  0  0  0  0  0  0
   -6.3194    1.5655   -2.4684 C   0  0  0  0  0  0  0  0  0  0  0  0
    7.0917    4.2420   -1.7090 H   0  0  0  0  0  0  0  0  0  0  0  0
    7.9750    3.0579   -0.6678 H   0  0  0  0  0  0  0  0  0  0  0  0
    6.9140    2.4193   -1.9982 H   0  0  0  0  0  0  0  0  0  0  0  0
    7.0375    0.9277   -0.6030 H   0  0  0  0  0  0  0  0  0  0  0  0
    6.3342   -1.0903    0.5241 H   0  0  0  0  0  0  0  0  0  0  0  0
    3.1771    1.0202    2.4439 H   0  0  0  0  0  0  0  0  0  0  0  0
    3.8737    3.0462    1.3214 H   0  0  0  0  0  0  0  0  0  0  0  0
    3.5661   -2.9252    0.5967 H   0  0  0  0  0  0  0  0  0  0  0  0
    1.8846   -0.8189    1.5984 H   0  0  0  0  0  0  0  0  0  0  0  0
    2.3394   -1.0054   -0.8503 H   0  0  0  0  0  0  0  0  0  0  0  0
    1.3991   -2.5060   -0.9240 H   0  0  0  0  0  0  0  0  0  0  0  0
    0.1026   -0.4772   -1.5357 H   0  0  0  0  0  0  0  0  0  0  0  0
    0.4265    0.1462    0.0947 H   0  0  0  0  0  0  0  0  0  0  0  0
   -1.0973   -2.3876   -0.4882 H   0  0  0  0  0  0  0  0  0  0  0  0
   -1.3938   -2.5246    1.8976 H   0  0  0  0  0  0  0  0  0  0  0  0
   -0.6485   -0.9486    2.1940 H   0  0  0  0  0  0  0  0  0  0  0  0
    0.9049   -2.5810    2.8368 H   0  0  0  0  0  0  0  0  0  0  0  0
    0.6572   -3.6063    1.3746 H   0  0  0  0  0  0  0  0  0  0  0  0
   -2.0656    0.2513    0.5338 H   0  0  0  0  0  0  0  0  0  0  0  0
   -4.9872   -0.7169   -2.7171 H   0  0  0  0  0  0  0  0  0  0  0  0
   -5.8121   -1.4989   -1.2680 H   0  0  0  0  0  0  0  0  0  0  0  0
   -7.4436   -0.4207   -0.0065 H   0  0  0  0  0  0  0  0  0  0  0  0
   -9.1305    1.3543    0.1013 H   0  0  0  0  0  0  0  0  0  0  0  0
   -9.0306    3.2839   -1.4417 H   0  0  0  0  0  0  0  0  0  0  0  0
   -7.2257    3.4045   -3.0790 H   0  0  0  0  0  0  0  0  0  0  0  0
   -5.5351    1.6506   -3.2053 H   0  0  0  0  0  0  0  0  0  0  0  0
  1  2  1  0
  2  3  1  0
  3  4  2  0
  4  5  1  0
  5  6  2  0
  6  7  1  0
  7  8  2  0
  6  9  1  0
  9 10  2  0
  9 11  2  0
  9 12  1  0
 12 13  1  0
 13 14  1  0
 14 15  1  0
 15 16  1  0
 16 17  1  0
 17 18  1  0
 16 19  1  0
 19 20  1  0
 20 21  2  0
 20 22  1  0
 22 23  1  0
 23 24  1  0
 24 25  2  0
 25 26  1  0
 26 27  2  0
 27 28  1  0
 28 29  2  0
  8  3  1  0
 18 13  1  0
 29 24  1  0
  1 30  1  0
  1 31  1  0
  1 32  1  0
  4 33  1  0
  5 34  1  0
  7 35  1  0
  8 36  1  0
 12 37  1  0
 13 38  1  1
 14 39  1  0
 14 40  1  0
 15 41  1  0
 15 42  1  0
 16 43  1  6
 17 44  1  0
 17 45  1  0
 18 46  1  0
 18 47  1  0
 19 48  1  0
 23 49  1  0
 23 50  1  0
 25 51  1  0
 26 52  1  0
 27 53  1  0
 28 54  1  0
 29 55  1  0
M  END
$$$$
[H]c1nc(N2C([H])([H])C([H])([H])OC([H])([H])C2([H])[H])nc(N2C([H])([H])C([H])([H])OC([H])([H])[C@@]2([H])C([H])([H])[H])c1C(=O)N([H])c1c([H])c([H])c(F)c(C(F)(F)F)c1[H]
     RDKit          3D

 56 59  0  0  0  0  0  0  0  0999 V2000
    0.5189    2.3138   -2.3241 C   0  0  0  0  0  0  0  0  0  0  0  0
   -0.6791    1.8559   -1.5176 C   0  0  2  0  0  0  0  0  0  0  0  0
   -1.5650    3.0775   -1.1731 C   0  0  0  0  0  0  0  0  0  0  0  0
   -0.8642    4.0033   -0.4655 O   0  0  0  0  0  0  0  0  0  0  0  0
   -0.2238    3.6282    0.6678 C   0  0  0  0  0  0  0  0  0  0  0  0
    0.3754    2.2265    0.6566 C   0  0  0  0  0  0  0  0  0  0  0  0
   -0.3237    1.3526   -0.2071 N   0  0  0  0  0  0  0  0  0  0  0  0
   -0.7623    0.0714    0.1873 C   0  0  0  0  0  0  0  0  0  0  0  0
   -2.0573   -0.2813   -0.1505 N   0  0  0  0  0  0  0  0  0  0  0  0
   -2.6113   -1.4230    0.2463 C   0  0  0  0  0  0  0  0  0  0  0  0
   -1.9049   -2.2759    1.0010 N   0  0  0  0  0  0  0  0  0  0  0  0
   -0.6414   -1.9849    1.3581 C   0  0  0  0  0  0  0  0  0  0  0  0
   -0.0421   -0.7948    0.9511 C   0  0  0  0  0  0  0  0  0  0  0  0
    1.3514   -0.5627    1.2468 C   0  0  0  0  0  0  0  0  0  0  0  0
    1.8497   -0.5586    2.4030 O   0  0  0  0  0  0  0  0  0  0  0  0
    2.2363   -0.3267    0.1374 N   0  0  0  0  0  0  0  0  0  0  0  0
    3.6147   -0.0773    0.3494 C   0  0  0  0  0  0  0  0  0  0  0  0
    4.0297    0.8318    1.2900 C   0  0  0  0  0  0  0  0  0  0  0  0
    5.3954    1.0223    1.4860 C   0  0  0  0  0  0  0  0  0  0  0  0
    6.3040    0.2905    0.7283 C   0  0  0  0  0  0  0  0  0  0  0  0
    7.6259    0.4809    0.9189 F   0  0  0  0  0  0  0  0  0  0  0  0
    5.8616   -0.6143   -0.2067 C   0  0  0  0  0  0  0  0  0  0  0  0
    4.5128   -0.8119   -0.4118 C   0  0  0  0  0  0  0  0  0  0  0  0
    6.8550   -1.4120   -0.9953 C   0  0  0  0  0  0  0  0  0  0  0  0
    7.5950   -2.1142   -0.0399 F   0  0  0  0  0  0  0  0  0  0  0  0
    6.1502   -2.3553   -1.7378 F   0  0  0  0  0  0  0  0  0  0  0  0
    7.6347   -0.6330   -1.8095 F   0  0  0  0  0  0  0  0  0  0  0  0
   -3.9547   -1.6829   -0.1248 N   0  0  0  0  0  0  0  0  0  0  0  0
   -4.9935   -0.8753    0.4574 C   0  0  0  0  0  0  0  0  0  0  0  0
   -6.2976   -1.6280    0.5704 C   0  0  0  0  0  0  0  0  0  0  0  0
   -6.4860   -2.5319   -0.4430 O   0  0  0  0  0  0  0  0  0  0  0  0
   -5.4764   -3.4665   -0.5774 C   0  0  0  0  0  0  0  0  0  0  0  0
   -4.2380   -2.7207   -1.0776 C   0  0  0  0  0  0  0  0  0  0  0  0
    1.3993    2.5343   -1.6877 H   0  0  0  0  0  0  0  0  0  0  0  0
    0.2038    3.2116   -2.9037 H   0  0  0  0  0  0  0  0  0  0  0  0
    0.8137    1.5236   -3.0451 H   0  0  0  0  0  0  0  0  0  0  0  0
   -1.2820    1.1855   -2.1254 H   0  0  0  0  0  0  0  0  0  0  0  0
   -1.8963    3.4864   -2.1206 H   0  0  0  0  0  0  0  0  0  0  0  0
   -2.3979    2.6355   -0.5790 H   0  0  0  0  0  0  0  0  0  0  0  0
    0.5969    4.3760    0.8982 H   0  0  0  0  0  0  0  0  0  0  0  0
   -0.9165    3.6731    1.5273 H   0  0  0  0  0  0  0  0  0  0  0  0
    0.4344    1.8824    1.7203 H   0  0  0  0  0  0  0  0  0  0  0  0
    1.4110    2.3800    0.3092 H   0  0  0  0  0  0  0  0  0  0  0  0
   -0.1157   -2.7023    1.9681 H   0  0  0  0  0  0  0  0  0  0  0  0
    1.8570   -0.3398   -0.8261 H   0  0  0  0  0  0  0  0  0  0  0  0
    3.3132    1.4087    1.8780 H   0  0  0  0  0  0  0  0  0  0  0  0
    5.6737    1.7431    2.2286 H   0  0  0  0  0  0  0  0  0  0  0  0
    4.2055   -1.5369   -1.1624 H   0  0  0  0  0  0  0  0  0  0  0  0
   -4.6377   -0.5423    1.4666 H   0  0  0  0  0  0  0  0  0  0  0  0
   -5.1116    0.0312   -0.1663 H   0  0  0  0  0  0  0  0  0  0  0  0
   -7.1306   -0.9106    0.5781 H   0  0  0  0  0  0  0  0  0  0  0  0
   -6.2691   -2.1715    1.5311 H   0  0  0  0  0  0  0  0  0  0  0  0
   -5.7992   -4.1903   -1.3573 H   0  0  0  0  0  0  0  0  0  0  0  0
   -5.2111   -4.0029    0.3335 H   0  0  0  0  0  0  0  0  0  0  0  0
   -4.4918   -2.2594   -2.0803 H   0  0  0  0  0  0  0  0  0  0  0  0
   -3.4386   -3.4388   -1.2376 H   0  0  0  0  0  0  0  0  0  0  0  0
  1  2  1  0
  2  3  1  0
  3  4  1  0
  4  5  1  0
  5  6  1  0
  6  7  1  0
  7  8  1  0
  8  9  2  0
  9 10  1  0
 10 11  2  0
 11 12  1  0
 12 13  2  0
 13 14  1  0
 14 15  2  0
 14 16  1  0
 16 17  1  0
 17 18  2  0
 18 19  1  0
 19 20  2  0
 20 21  1  0
 20 22  1  0
 22 23  2  0
 22 24  1  0
 24 25  1  0
 24 26  1  0
 24 27  1  0
 10 28  1  0
 28 29  1  0
 29 30  1  0
 30 31  1  0
 31 32  1  0
 32 33  1  0
  7  2  1  0
 13  8  1  0
 23 17  1  0
 33 28  1  0
  1 34  1  0
  1 35  1  0
  1 36  1  0
  2 37  1  6
  3 38  1  0
  3 39  1  0
  5 40  1  0
  5 41  1  0
  6 42  1  0
  6 43  1  0
 12 44  1  0
 16 45  1  0
 18 46  1  0
 19 47  1  0
 23 48  1  0
 29 49  1  0
 29 50  1  0
 30 51  1  0
 30 52  1  0
 32 53  1  0
 32 54  1  0
 33 55  1  0
 33 56  1  0
M  END
$$$$
[H]c1c([H])c([H])c(C([H])([H])OC(=O)N([H])[C@]([H])(C(=O)N([H])[C@]([H])(C(=O)N([H])[C@]([H])(C(=O)N2C([H])([H])C([H])([H])C([H])([H])[C@@]2([H])C(=O)N([H])[C@]([H])(C(=O)N2C([H])([H])C([H])([H])C([H])([H])[C@@]2([H])C(=O)N([H])[C@]([H])(C([H])([H])[H])C(C([H])([H])[H])(C([H])([H])[H])C([H])([H])[H])C([H])([H])c2c([H])c([H])c(Cl)c([H])c2[H])C([H])([H])c2c([H])c([H])c([H])c([H])c2[H])C([H])([H])c2c([H])c([H])c([H])c([H])c2[H])C([H])([H])c2c([H])c([H])c([H])c([H])c2[H])c([H])c1[H]
     RDKit          3D

146152  0  0  0  0  0  0  0  0999 V2000
  -12.7959    0.8710    0.4743 C   0  0  0  0  0  0  0  0  0  0  0  0
  -12.1788   -0.2832   -0.3160 C   0  0  1  0  0  0  0  0  0  0  0  0
  -10.9322   -0.7002    0.2633 N   0  0  0  0  0  0  0  0  0  0  0  0
   -9.6383   -0.4996   -0.2197 C   0  0  0  0  0  0  0  0  0  0  0  0
   -9.5182    0.1372   -1.3017 O   0  0  0  0  0  0  0  0  0  0  0  0
   -8.4075   -0.9652    0.4251 C   0  0  2  0  0  0  0  0  0  0  0  0
   -8.5680   -1.7791    1.6621 C   0  0  0  0  0  0  0  0  0  0  0  0
   -8.2787   -0.8014    2.8008 C   0  0  0  0  0  0  0  0  0  0  0  0
   -7.5460    0.2982    2.1296 C   0  0  0  0  0  0  0  0  0  0  0  0
   -7.4258    0.0495    0.7265 N   0  0  0  0  0  0  0  0  0  0  0  0
   -6.5297    0.6684   -0.1836 C   0  0  0  0  0  0  0  0  0  0  0  0
   -6.6114    0.3727   -1.4156 O   0  0  0  0  0  0  0  0  0  0  0  0
   -5.4731    1.6440    0.1939 C   0  0  2  0  0  0  0  0  0  0  0  0
   -5.8461    3.0249   -0.2015 C   0  0  0  0  0  0  0  0  0  0  0  0
   -7.0866    3.4926    0.4273 C   0  0  0  0  0  0  0  0  0  0  0  0
   -7.0961    4.1148    1.6442 C   0  0  0  0  0  0  0  0  0  0  0  0
   -8.2828    4.5510    2.1819 C   0  0  0  0  0  0  0  0  0  0  0  0
   -9.4787    4.3773    1.5246 C   0  0  0  0  0  0  0  0  0  0  0  0
  -11.0171    4.9078    2.1506 Cl  0  0  0  0  0  0  0  0  0  0  0  0
   -9.4783    3.7425    0.2793 C   0  0  0  0  0  0  0  0  0  0  0  0
   -8.2955    3.3214   -0.2306 C   0  0  0  0  0  0  0  0  0  0  0  0
   -4.3265    1.2445   -0.6764 N   0  0  0  0  0  0  0  0  0  0  0  0
   -3.1762    0.6414   -0.1435 C   0  0  0  0  0  0  0  0  0  0  0  0
   -3.0767    0.4469    1.0711 O   0  0  0  0  0  0  0  0  0  0  0  0
   -2.0970    0.2435   -1.0855 C   0  0  2  0  0  0  0  0  0  0  0  0
   -2.7067   -0.5385   -2.2629 C   0  0  0  0  0  0  0  0  0  0  0  0
   -2.5991   -1.9784   -1.8138 C   0  0  0  0  0  0  0  0  0  0  0  0
   -2.0355   -1.9396   -0.4196 C   0  0  0  0  0  0  0  0  0  0  0  0
   -1.1858   -0.7015   -0.5261 N   0  0  0  0  0  0  0  0  0  0  0  0
    0.1557   -0.6891   -0.1644 C   0  0  0  0  0  0  0  0  0  0  0  0
    0.5705   -1.8405    0.3609 O   0  0  0  0  0  0  0  0  0  0  0  0
    1.2233    0.3002   -0.2331 C   0  0  2  0  0  0  0  0  0  0  0  0
    0.9257    1.4873   -1.0645 C   0  0  0  0  0  0  0  0  0  0  0  0
    2.0979    2.4359   -1.0946 C   0  0  0  0  0  0  0  0  0  0  0  0
    3.0218    2.3729   -2.1025 C   0  0  0  0  0  0  0  0  0  0  0  0
    4.0986    3.2206   -2.1167 C   0  0  0  0  0  0  0  0  0  0  0  0
    4.2525    4.1597   -1.0873 C   0  0  0  0  0  0  0  0  0  0  0  0
    3.3124    4.1913   -0.1019 C   0  0  0  0  0  0  0  0  0  0  0  0
    2.2190    3.3442   -0.0722 C   0  0  0  0  0  0  0  0  0  0  0  0
    2.4844   -0.3408   -0.5462 N   0  0  0  0  0  0  0  0  0  0  0  0
    3.6229   -0.3520    0.2835 C   0  0  0  0  0  0  0  0  0  0  0  0
    3.6782    0.2126    1.3738 O   0  0  0  0  0  0  0  0  0  0  0  0
    4.8464   -1.1083   -0.1897 C   0  0  2  0  0  0  0  0  0  0  0  0
    4.3853   -2.5520   -0.4090 C   0  0  0  0  0  0  0  0  0  0  0  0
    5.4360   -3.4446   -0.8854 C   0  0  0  0  0  0  0  0  0  0  0  0
    6.2253   -4.1443   -0.0027 C   0  0  0  0  0  0  0  0  0  0  0  0
    7.2056   -4.9920   -0.4683 C   0  0  0  0  0  0  0  0  0  0  0  0
    7.4045   -5.1462   -1.8284 C   0  0  0  0  0  0  0  0  0  0  0  0
    6.6119   -4.4437   -2.7162 C   0  0  0  0  0  0  0  0  0  0  0  0
    5.6353   -3.5989   -2.2476 C   0  0  0  0  0  0  0  0  0  0  0  0
    5.9249   -1.0204    0.7230 N   0  0  0  0  0  0  0  0  0  0  0  0
    7.2265   -0.7564    0.2453 C   0  0  0  0  0  0  0  0  0  0  0  0
    7.3749   -0.6012   -1.0259 O   0  0  0  0  0  0  0  0  0  0  0  0
    8.4631   -0.6377    1.0211 C   0  0  2  0  0  0  0  0  0  0  0  0
    8.7392    0.7935    1.4490 C   0  0  0  0  0  0  0  0  0  0  0  0
    8.9119    1.7234    0.3476 C   0  0  0  0  0  0  0  0  0  0  0  0
   10.1736    1.9178   -0.1684 C   0  0  0  0  0  0  0  0  0  0  0  0
   10.4228    2.7829   -1.2095 C   0  0  0  0  0  0  0  0  0  0  0  0
    9.3578    3.4752   -1.7437 C   0  0  0  0  0  0  0  0  0  0  0  0
    8.0902    3.2878   -1.2357 C   0  0  0  0  0  0  0  0  0  0  0  0
    7.8718    2.4117   -0.1910 C   0  0  0  0  0  0  0  0  0  0  0  0
    9.5988   -1.1398    0.2275 N   0  0  0  0  0  0  0  0  0  0  0  0
   10.7004   -1.7741    0.8290 C   0  0  0  0  0  0  0  0  0  0  0  0
   10.7473   -1.8995    2.0664 O   0  0  0  0  0  0  0  0  0  0  0  0
   11.7229   -2.2585    0.0572 O   0  0  0  0  0  0  0  0  0  0  0  0
   12.8880   -2.8953    0.5245 C   0  0  0  0  0  0  0  0  0  0  0  0
   13.6442   -1.8684    1.3216 C   0  0  0  0  0  0  0  0  0  0  0  0
   13.6401   -0.5424    0.8654 C   0  0  0  0  0  0  0  0  0  0  0  0
   14.3143    0.4715    1.4973 C   0  0  0  0  0  0  0  0  0  0  0  0
   15.0174    0.1264    2.6347 C   0  0  0  0  0  0  0  0  0  0  0  0
   15.0406   -1.1628    3.1083 C   0  0  0  0  0  0  0  0  0  0  0  0
   14.3500   -2.1813    2.4534 C   0  0  0  0  0  0  0  0  0  0  0  0
  -13.1905   -1.3731   -0.4325 C   0  0  0  0  0  0  0  0  0  0  0  0
  -14.4049   -0.8155   -1.1572 C   0  0  0  0  0  0  0  0  0  0  0  0
  -12.6941   -2.5273   -1.2774 C   0  0  0  0  0  0  0  0  0  0  0  0
  -13.6902   -1.8503    0.9218 C   0  0  0  0  0  0  0  0  0  0  0  0
  -13.7433    0.5969    0.9436 H   0  0  0  0  0  0  0  0  0  0  0  0
  -12.9505    1.7740   -0.1253 H   0  0  0  0  0  0  0  0  0  0  0  0
  -12.0560    1.1611    1.2678 H   0  0  0  0  0  0  0  0  0  0  0  0
  -11.9815    0.1291   -1.3198 H   0  0  0  0  0  0  0  0  0  0  0  0
  -11.0290   -1.2212    1.1880 H   0  0  0  0  0  0  0  0  0  0  0  0
   -7.8378   -1.6663   -0.2970 H   0  0  0  0  0  0  0  0  0  0  0  0
   -9.5073   -2.3041    1.7516 H   0  0  0  0  0  0  0  0  0  0  0  0
   -7.7707   -2.5861    1.7327 H   0  0  0  0  0  0  0  0  0  0  0  0
   -9.2441   -0.4712    3.2567 H   0  0  0  0  0  0  0  0  0  0  0  0
   -7.6562   -1.2985    3.5904 H   0  0  0  0  0  0  0  0  0  0  0  0
   -6.5854    0.5610    2.6161 H   0  0  0  0  0  0  0  0  0  0  0  0
   -8.1793    1.2244    2.2443 H   0  0  0  0  0  0  0  0  0  0  0  0
   -5.1531    1.5373    1.2287 H   0  0  0  0  0  0  0  0  0  0  0  0
   -4.9975    3.7343    0.0004 H   0  0  0  0  0  0  0  0  0  0  0  0
   -6.0238    3.0022   -1.3190 H   0  0  0  0  0  0  0  0  0  0  0  0
   -6.1545    4.2682    2.1917 H   0  0  0  0  0  0  0  0  0  0  0  0
   -8.3087    5.0531    3.1579 H   0  0  0  0  0  0  0  0  0  0  0  0
  -10.4193    3.5952   -0.2594 H   0  0  0  0  0  0  0  0  0  0  0  0
   -8.2939    2.8215   -1.2154 H   0  0  0  0  0  0  0  0  0  0  0  0
   -4.4873    1.4695   -1.6766 H   0  0  0  0  0  0  0  0  0  0  0  0
   -1.6757    1.1413   -1.5273 H   0  0  0  0  0  0  0  0  0  0  0  0
   -3.7671   -0.2481   -2.3868 H   0  0  0  0  0  0  0  0  0  0  0  0
   -2.1057   -0.3209   -3.1713 H   0  0  0  0  0  0  0  0  0  0  0  0
   -1.8968   -2.5671   -2.4753 H   0  0  0  0  0  0  0  0  0  0  0  0
   -3.5612   -2.5182   -1.8485 H   0  0  0  0  0  0  0  0  0  0  0  0
   -2.7520   -1.7605    0.3715 H   0  0  0  0  0  0  0  0  0  0  0  0
   -1.3874   -2.8193   -0.2127 H   0  0  0  0  0  0  0  0  0  0  0  0
    1.3665    0.6566    0.8512 H   0  0  0  0  0  0  0  0  0  0  0  0
    0.6161    1.2606   -2.0990 H   0  0  0  0  0  0  0  0  0  0  0  0
    0.1279    2.0778   -0.5638 H   0  0  0  0  0  0  0  0  0  0  0  0
    2.8609    1.6256   -2.8792 H   0  0  0  0  0  0  0  0  0  0  0  0
    4.8351    3.1899   -2.8979 H   0  0  0  0  0  0  0  0  0  0  0  0
    5.1168    4.8403   -1.0948 H   0  0  0  0  0  0  0  0  0  0  0  0
    3.4237    4.9227    0.7117 H   0  0  0  0  0  0  0  0  0  0  0  0
    1.4774    3.3790    0.7176 H   0  0  0  0  0  0  0  0  0  0  0  0
    2.5156   -0.8254   -1.4767 H   0  0  0  0  0  0  0  0  0  0  0  0
    5.0742   -0.7350   -1.2044 H   0  0  0  0  0  0  0  0  0  0  0  0
    3.5559   -2.5527   -1.1431 H   0  0  0  0  0  0  0  0  0  0  0  0
    3.9788   -2.8774    0.5640 H   0  0  0  0  0  0  0  0  0  0  0  0
    6.0718   -4.0283    1.0671 H   0  0  0  0  0  0  0  0  0  0  0  0
    7.8338   -5.5528    0.2357 H   0  0  0  0  0  0  0  0  0  0  0  0
    8.1745   -5.8154   -2.2197 H   0  0  0  0  0  0  0  0  0  0  0  0
    6.7616   -4.5659   -3.7975 H   0  0  0  0  0  0  0  0  0  0  0  0
    5.0041   -3.0393   -2.9552 H   0  0  0  0  0  0  0  0  0  0  0  0
    5.7844   -1.1494    1.7416 H   0  0  0  0  0  0  0  0  0  0  0  0
    8.4260   -1.2151    1.9380 H   0  0  0  0  0  0  0  0  0  0  0  0
    9.6040    0.7465    2.1635 H   0  0  0  0  0  0  0  0  0  0  0  0
    7.8685    1.1156    2.0550 H   0  0  0  0  0  0  0  0  0  0  0  0
   11.0133    1.3683    0.2555 H   0  0  0  0  0  0  0  0  0  0  0  0
   11.3974    2.9570   -1.6371 H   0  0  0  0  0  0  0  0  0  0  0  0
    9.5527    4.1656   -2.5740 H   0  0  0  0  0  0  0  0  0  0  0  0
    7.2684    3.8584   -1.6940 H   0  0  0  0  0  0  0  0  0  0  0  0
    6.8439    2.3189    0.1500 H   0  0  0  0  0  0  0  0  0  0  0  0
    9.5951   -1.0302   -0.8076 H   0  0  0  0  0  0  0  0  0  0  0  0
   12.6249   -3.7601    1.1952 H   0  0  0  0  0  0  0  0  0  0  0  0
   13.4943   -3.2192   -0.3170 H   0  0  0  0  0  0  0  0  0  0  0  0
   13.0525   -0.3524   -0.0471 H   0  0  0  0  0  0  0  0  0  0  0  0
   14.2963    1.4830    1.1237 H   0  0  0  0  0  0  0  0  0  0  0  0
   15.5656    0.8961    3.1668 H   0  0  0  0  0  0  0  0  0  0  0  0
   15.6011   -1.3939    4.0020 H   0  0  0  0  0  0  0  0  0  0  0  0
   14.3588   -3.2141    2.8177 H   0  0  0  0  0  0  0  0  0  0  0  0
  -14.5735    0.2436   -0.9775 H   0  0  0  0  0  0  0  0  0  0  0  0
  -14.3168   -0.9686   -2.2616 H   0  0  0  0  0  0  0  0  0  0  0  0
  -15.3360   -1.3651   -0.8393 H   0  0  0  0  0  0  0  0  0  0  0  0
  -13.2216   -3.4899   -1.0066 H   0  0  0  0  0  0  0  0  0  0  0  0
  -11.6130   -2.7367   -1.1279 H   0  0  0  0  0  0  0  0  0  0  0  0
  -12.9357   -2.3909   -2.3625 H   0  0  0  0  0  0  0  0  0  0  0  0
  -14.5813   -1.2445    1.2572 H   0  0  0  0  0  0  0  0  0  0  0  0
  -14.0751   -2.8958    0.8835 H   0  0  0  0  0  0  0  0  0  0  0  0
  -12.9299   -1.6964    1.7156 H   0  0  0  0  0  0  0  0  0  0  0  0
  1  2  1  0
  2  3  1  0
  3  4  1  0
  4  5  2  0
  4  6  1  0
  6  7  1  0
  7  8  1  0
  8  9  1  0
  9 10  1  0
 10 11  1  0
 11 12  2  0
 11 13  1  0
 13 14  1  0
 14 15  1  0
 15 16  2  0
 16 17  1  0
 17 18  2  0
 18 19  1  0
 18 20  1  0
 20 21  2  0
 13 22  1  0
 22 23  1  0
 23 24  2  0
 23 25  1  0
 25 26  1  0
 26 27  1  0
 27 28  1  0
 28 29  1  0
 29 30  1  0
 30 31  2  0
 30 32  1  0
 32 33  1  0
 33 34  1  0
 34 35  2  0
 35 36  1  0
 36 37  2  0
 37 38  1  0
 38 39  2  0
 32 40  1  0
 40 41  1  0
 41 42  2  0
 41 43  1  0
 43 44  1  0
 44 45  1  0
 45 46  2  0
 46 47  1  0
 47 48  2  0
 48 49  1  0
 49 50  2  0
 43 51  1  0
 51 52  1  0
 52 53  2  0
 52 54  1  0
 54 55  1  0
 55 56  1  0
 56 57  2  0
 57 58  1  0
 58 59  2  0
 59 60  1  0
 60 61  2  0
 54 62  1  0
 62 63  1  0
 63 64  2  0
 63 65  1  0
 65 66  1  0
 66 67  1  0
 67 68  2  0
 68 69  1  0
 69 70  2  0
 70 71  1  0
 71 72  2  0
  2 73  1  0
 73 74  1  0
 73 75  1  0
 73 76  1  0
 10  6  1  0
 21 15  1  0
 29 25  1  0
 39 34  1  0
 50 45  1  0
 61 56  1  0
 72 67  1  0
  1 77  1  0
  1 78  1  0
  1 79  1  0
  2 80  1  6
  3 81  1  0
  6 82  1  6
  7 83  1  0
  7 84  1  0
  8 85  1  0
  8 86  1  0
  9 87  1  0
  9 88  1  0
 13 89  1  1
 14 90  1  0
 14 91  1  0
 16 92  1  0
 17 93  1  0
 20 94  1  0
 21 95  1  0
 22 96  1  0
 25 97  1  6
 26 98  1  0
 26 99  1  0
 27100  1  0
 27101  1  0
 28102  1  0
 28103  1  0
 32104  1  1
 33105  1  0
 33106  1  0
 35107  1  0
 36108  1  0
 37109  1  0
 38110  1  0
 39111  1  0
 40112  1  0
 43113  1  6
 44114  1  0
 44115  1  0
 46116  1  0
 47117  1  0
 48118  1  0
 49119  1  0
 50120  1  0
 51121  1  0
 54122  1  1
 55123  1  0
 55124  1  0
 57125  1  0
 58126  1  0
 59127  1  0
 60128  1  0
 61129  1  0
 62130  1  0
 66131  1  0
 66132  1  0
 68133  1  0
 69134  1  0
 70135  1  0
 71136  1  0
 72137  1  0
 74138  1  0
 74139  1  0
 74140  1  0
 75141  1  0
 75142  1  0
 75143  1  0
 76144  1  0
 76145  1  0
 76146  1  0
M  END
$$$$
[H]Oc1c([H])c(-c2c([H])nc3c(c(N([H])[H])nn3[H])c2[H])c([H])c(O[H])c1O[H]
     RDKit          3D

 29 31  0  0  0  0  0  0  0  0999 V2000
   -4.0006    1.7258   -1.0605 N   0  0  0  0  0  0  0  0  0  0  0  0
   -3.8764    0.7556   -0.0347 C   0  0  0  0  0  0  0  0  0  0  0  0
   -4.8535    0.2370    0.7483 N   0  0  0  0  0  0  0  0  0  0  0  0
   -4.3290   -0.6485    1.5953 N   0  0  0  0  0  0  0  0  0  0  0  0
   -3.0027   -0.7438    1.4027 C   0  0  0  0  0  0  0  0  0  0  0  0
   -2.0052   -1.4533    1.9537 N   0  0  0  0  0  0  0  0  0  0  0  0
   -0.7392   -1.3194    1.5271 C   0  0  0  0  0  0  0  0  0  0  0  0
   -0.3951   -0.4478    0.5015 C   0  0  0  0  0  0  0  0  0  0  0  0
   -1.4033    0.2745   -0.0620 C   0  0  0  0  0  0  0  0  0  0  0  0
   -2.7113    0.1329    0.3831 C   0  0  0  0  0  0  0  0  0  0  0  0
    0.9857   -0.2990    0.0349 C   0  0  0  0  0  0  0  0  0  0  0  0
    1.8606   -1.3921    0.0689 C   0  0  0  0  0  0  0  0  0  0  0  0
    3.1559   -1.3049   -0.3439 C   0  0  0  0  0  0  0  0  0  0  0  0
    3.9506   -2.4403   -0.2744 O   0  0  0  0  0  0  0  0  0  0  0  0
    3.6231   -0.0995   -0.8117 C   0  0  0  0  0  0  0  0  0  0  0  0
    4.9396   -0.0308   -1.2254 O   0  0  0  0  0  0  0  0  0  0  0  0
    2.7725    1.0101   -0.8576 C   0  0  0  0  0  0  0  0  0  0  0  0
    3.3175    2.1898   -1.3415 O   0  0  0  0  0  0  0  0  0  0  0  0
    1.4690    0.8812   -0.4312 C   0  0  0  0  0  0  0  0  0  0  0  0
   -3.9574    2.7275   -0.8026 H   0  0  0  0  0  0  0  0  0  0  0  0
   -4.1299    1.4364   -2.0342 H   0  0  0  0  0  0  0  0  0  0  0  0
   -4.8093   -1.2262    2.3319 H   0  0  0  0  0  0  0  0  0  0  0  0
    0.0911   -1.8840    1.9590 H   0  0  0  0  0  0  0  0  0  0  0  0
   -1.2198    0.9717   -0.8640 H   0  0  0  0  0  0  0  0  0  0  0  0
    1.4324   -2.3137    0.4478 H   0  0  0  0  0  0  0  0  0  0  0  0
    4.9286   -2.4271   -0.5715 H   0  0  0  0  0  0  0  0  0  0  0  0
    5.2712    0.8817   -1.5711 H   0  0  0  0  0  0  0  0  0  0  0  0
    2.8212    3.0592   -1.4275 H   0  0  0  0  0  0  0  0  0  0  0  0
    0.8137    1.7465   -0.4711 H   0  0  0  0  0  0  0  0  0  0  0  0
  1  2  1  0
  2  3  2  0
  3  4  1  0
  4  5  1  0
  5  6  2  0
  6  7  1  0
  7  8  2  0
  8  9  1  0
  9 10  2  0
  8 11  1  0
 11 12  2  0
 12 13  1  0
 13 14  1  0
 13 15  2  0
 15 16  1  0
 15 17  1  0
 17 18  1  0
 17 19  2  0
 10  2  1  0
 19 11  1  0
 10  5  1  0
  1 20  1  0
  1 21  1  0
  4 22  1  0
  7 23  1  0
  9 24  1  0
 12 25  1  0
 14 26  1  0
 16 27  1  0
 18 28  1  0
 19 29  1  0
M  END
$$$$
[H]OC(=O)[C@@]([H])(N([H])C(=O)[C@@]([H])(N([H])C(=O)[C@@]([H])(N([H])[H])C([H])([H])c1c([H])c([H])c(O[H])c([H])c1[H])C([H])([H])C([H])(C([H])([H])[H])C([H])([H])[H])C([H])([H])c1c([H])n([H])c2c([H])c([H])c([H])c([H])c12
     RDKit          3D

 67 69  0  0  0  0  0  0  0  0999 V2000
    2.2198   -4.5973   -0.5684 C   0  0  0  0  0  0  0  0  0  0  0  0
    0.8194   -4.3785   -1.0284 C   0  0  0  0  0  0  0  0  0  0  0  0
   -0.0194   -5.6423   -0.8196 C   0  0  0  0  0  0  0  0  0  0  0  0
    0.1427   -3.2157   -0.3908 C   0  0  0  0  0  0  0  0  0  0  0  0
    0.7005   -1.8612   -0.5942 C   0  0  2  0  0  0  0  0  0  0  0  0
    2.0374   -1.6541   -0.1443 N   0  0  0  0  0  0  0  0  0  0  0  0
    3.1298   -1.2306   -0.9679 C   0  0  0  0  0  0  0  0  0  0  0  0
    2.8141   -1.0119   -2.1824 O   0  0  0  0  0  0  0  0  0  0  0  0
    4.4997   -1.0555   -0.5309 C   0  0  1  0  0  0  0  0  0  0  0  0
    5.3474   -0.7604   -1.7011 N   0  0  0  0  0  0  0  0  0  0  0  0
    4.8035   -0.1224    0.5829 C   0  0  0  0  0  0  0  0  0  0  0  0
    4.4705    1.2778    0.4017 C   0  0  0  0  0  0  0  0  0  0  0  0
    3.2925    1.8062    0.8408 C   0  0  0  0  0  0  0  0  0  0  0  0
    2.9646    3.1496    0.6673 C   0  0  0  0  0  0  0  0  0  0  0  0
    3.8779    3.9593    0.0257 C   0  0  0  0  0  0  0  0  0  0  0  0
    3.5872    5.2963   -0.1643 O   0  0  0  0  0  0  0  0  0  0  0  0
    5.0693    3.4539   -0.4253 C   0  0  0  0  0  0  0  0  0  0  0  0
    5.3713    2.1199   -0.2418 C   0  0  0  0  0  0  0  0  0  0  0  0
   -0.2627   -0.8538   -0.0492 C   0  0  0  0  0  0  0  0  0  0  0  0
    0.1644    0.3415    0.0263 O   0  0  0  0  0  0  0  0  0  0  0  0
   -1.5757   -1.1456    0.3737 N   0  0  0  0  0  0  0  0  0  0  0  0
   -2.4424   -0.0620    0.8929 C   0  0  1  0  0  0  0  0  0  0  0  0
   -3.7183   -0.1742    0.1360 C   0  0  0  0  0  0  0  0  0  0  0  0
   -4.7460    0.8060    0.4819 C   0  0  0  0  0  0  0  0  0  0  0  0
   -5.8570    0.5478    1.2567 C   0  0  0  0  0  0  0  0  0  0  0  0
   -6.5748    1.6706    1.3654 N   0  0  0  0  0  0  0  0  0  0  0  0
   -5.9503    2.6566    0.6741 C   0  0  0  0  0  0  0  0  0  0  0  0
   -6.2682    3.9956    0.4638 C   0  0  0  0  0  0  0  0  0  0  0  0
   -5.4075    4.7520   -0.3081 C   0  0  0  0  0  0  0  0  0  0  0  0
   -4.2599    4.2127   -0.8631 C   0  0  0  0  0  0  0  0  0  0  0  0
   -3.9409    2.8897   -0.6584 C   0  0  0  0  0  0  0  0  0  0  0  0
   -4.8010    2.1263    0.1149 C   0  0  0  0  0  0  0  0  0  0  0  0
   -2.5917   -0.3555    2.3400 C   0  0  0  0  0  0  0  0  0  0  0  0
   -3.3619    0.5139    3.0986 O   0  0  0  0  0  0  0  0  0  0  0  0
   -2.0754   -1.3278    2.9282 O   0  0  0  0  0  0  0  0  0  0  0  0
    2.3981   -4.0922    0.3946 H   0  0  0  0  0  0  0  0  0  0  0  0
    2.4049   -5.7171   -0.4425 H   0  0  0  0  0  0  0  0  0  0  0  0
    2.9268   -4.2490   -1.3485 H   0  0  0  0  0  0  0  0  0  0  0  0
    0.8278   -4.2447   -2.1552 H   0  0  0  0  0  0  0  0  0  0  0  0
    0.6073   -6.5011   -1.1437 H   0  0  0  0  0  0  0  0  0  0  0  0
   -0.3567   -5.7212    0.2187 H   0  0  0  0  0  0  0  0  0  0  0  0
   -0.8847   -5.5707   -1.5108 H   0  0  0  0  0  0  0  0  0  0  0  0
   -0.0341   -3.4084    0.7032 H   0  0  0  0  0  0  0  0  0  0  0  0
   -0.9120   -3.1995   -0.8303 H   0  0  0  0  0  0  0  0  0  0  0  0
    0.7425   -1.6659   -1.7298 H   0  0  0  0  0  0  0  0  0  0  0  0
    2.2631   -1.8068    0.8722 H   0  0  0  0  0  0  0  0  0  0  0  0
    4.8628   -2.0770   -0.1827 H   0  0  0  0  0  0  0  0  0  0  0  0
    4.9631    0.1147   -2.1250 H   0  0  0  0  0  0  0  0  0  0  0  0
    5.1867   -1.5068   -2.4310 H   0  0  0  0  0  0  0  0  0  0  0  0
    4.3176   -0.5641    1.5046 H   0  0  0  0  0  0  0  0  0  0  0  0
    5.9062   -0.2188    0.7935 H   0  0  0  0  0  0  0  0  0  0  0  0
    2.5707    1.2086    1.3424 H   0  0  0  0  0  0  0  0  0  0  0  0
    2.0227    3.5323    1.0284 H   0  0  0  0  0  0  0  0  0  0  0  0
    4.2323    5.9107   -0.6277 H   0  0  0  0  0  0  0  0  0  0  0  0
    5.7599    4.1340   -0.9271 H   0  0  0  0  0  0  0  0  0  0  0  0
    6.3288    1.7505   -0.6129 H   0  0  0  0  0  0  0  0  0  0  0  0
   -1.9431   -2.1064    0.3343 H   0  0  0  0  0  0  0  0  0  0  0  0
   -1.8938    0.8704    0.8094 H   0  0  0  0  0  0  0  0  0  0  0  0
   -3.4606   -0.1028   -0.9555 H   0  0  0  0  0  0  0  0  0  0  0  0
   -4.0946   -1.2228    0.2835 H   0  0  0  0  0  0  0  0  0  0  0  0
   -6.1506   -0.3820    1.7239 H   0  0  0  0  0  0  0  0  0  0  0  0
   -7.4699    1.8300    1.8779 H   0  0  0  0  0  0  0  0  0  0  0  0
   -7.1751    4.3911    0.9115 H   0  0  0  0  0  0  0  0  0  0  0  0
   -5.6510    5.7884   -0.4732 H   0  0  0  0  0  0  0  0  0  0  0  0
   -3.5816    4.8025   -1.4689 H   0  0  0  0  0  0  0  0  0  0  0  0
   -3.0608    2.4154   -1.0663 H   0  0  0  0  0  0  0  0  0  0  0  0
   -3.1116    1.4818    3.2852 H   0  0  0  0  0  0  0  0  0  0  0  0
  1  2  1  0
  2  3  1  0
  2  4  1  0
  4  5  1  0
  5  6  1  0
  6  7  1  0
  7  8  2  0
  7  9  1  0
  9 10  1  0
  9 11  1  0
 11 12  1  0
 12 13  2  0
 13 14  1  0
 14 15  2  0
 15 16  1  0
 15 17  1  0
 17 18  2  0
  5 19  1  0
 19 20  2  0
 19 21  1  0
 21 22  1  0
 22 23  1  0
 23 24  1  0
 24 25  2  0
 25 26  1  0
 26 27  1  0
 27 28  2  0
 28 29  1  0
 29 30  2  0
 30 31  1  0
 31 32  2  0
 22 33  1  0
 33 34  1  0
 33 35  2  0
 18 12  1  0
 32 24  1  0
 32 27  1  0
  1 36  1  0
  1 37  1  0
  1 38  1  0
  2 39  1  0
  3 40  1  0
  3 41  1  0
  3 42  1  0
  4 43  1  0
  4 44  1  0
  5 45  1  6
  6 46  1  0
  9 47  1  1
 10 48  1  0
 10 49  1  0
 11 50  1  0
 11 51  1  0
 13 52  1  0
 14 53  1  0
 16 54  1  0
 17 55  1  0
 18 56  1  0
 21 57  1  0
 22 58  1  1
 23 59  1  0
 23 60  1  0
 25 61  1  0
 26 62  1  0
 28 63  1  0
 29 64  1  0
 30 65  1  0
 31 66  1  0
 34 67  1  0
M  END
$$$$
[H]c1c([H])c(-c2nc(-c3c([H])c([H])c(N4C([H])([H])C([H])([H])N(C([H])([H])[H])C([H])([H])C4([H])[H])c([H])c3[H])c([H])c(=O)n2[H])c([H])c([H])c1F
     RDKit          3D

 48 51  0  0  0  0  0  0  0  0999 V2000
    6.7417   -1.0683    1.4799 C   0  0  0  0  0  0  0  0  0  0  0  0
    6.1230   -0.7289    0.2470 N   0  0  0  0  0  0  0  0  0  0  0  0
    5.8331    0.6448    0.0464 C   0  0  0  0  0  0  0  0  0  0  0  0
    4.4363    0.9924   -0.2729 C   0  0  0  0  0  0  0  0  0  0  0  0
    3.4618   -0.0365   -0.1044 N   0  0  0  0  0  0  0  0  0  0  0  0
    3.7668   -1.4358    0.1509 C   0  0  0  0  0  0  0  0  0  0  0  0
    5.1936   -1.6561   -0.2735 C   0  0  0  0  0  0  0  0  0  0  0  0
    2.0816    0.2973   -0.1893 C   0  0  0  0  0  0  0  0  0  0  0  0
    1.0626   -0.5985    0.0465 C   0  0  0  0  0  0  0  0  0  0  0  0
   -0.2677   -0.2484   -0.0469 C   0  0  0  0  0  0  0  0  0  0  0  0
   -0.6383    1.0467   -0.3892 C   0  0  0  0  0  0  0  0  0  0  0  0
    0.3668    1.9407   -0.6245 C   0  0  0  0  0  0  0  0  0  0  0  0
    1.7017    1.5774   -0.5276 C   0  0  0  0  0  0  0  0  0  0  0  0
   -2.0608    1.4064   -0.4853 C   0  0  0  0  0  0  0  0  0  0  0  0
   -2.5045    2.6643   -0.8178 C   0  0  0  0  0  0  0  0  0  0  0  0
   -3.8437    2.9794   -0.9021 C   0  0  0  0  0  0  0  0  0  0  0  0
   -4.2337    4.1448   -1.2102 O   0  0  0  0  0  0  0  0  0  0  0  0
   -4.7451    2.0111   -0.6472 N   0  0  0  0  0  0  0  0  0  0  0  0
   -4.3466    0.7750   -0.3205 C   0  0  0  0  0  0  0  0  0  0  0  0
   -3.0177    0.4912   -0.2444 N   0  0  0  0  0  0  0  0  0  0  0  0
   -5.3176   -0.3031   -0.0366 C   0  0  0  0  0  0  0  0  0  0  0  0
   -6.6712   -0.1496   -0.0781 C   0  0  0  0  0  0  0  0  0  0  0  0
   -7.5552   -1.1824    0.1937 C   0  0  0  0  0  0  0  0  0  0  0  0
   -7.0807   -2.4240    0.5217 C   0  0  0  0  0  0  0  0  0  0  0  0
   -7.8889   -3.4802    0.7998 F   0  0  0  0  0  0  0  0  0  0  0  0
   -5.7160   -2.6145    0.5729 C   0  0  0  0  0  0  0  0  0  0  0  0
   -4.8500   -1.5754    0.2994 C   0  0  0  0  0  0  0  0  0  0  0  0
    6.9274   -0.1736    2.1049 H   0  0  0  0  0  0  0  0  0  0  0  0
    6.1945   -1.8323    2.0754 H   0  0  0  0  0  0  0  0  0  0  0  0
    7.7360   -1.5455    1.2348 H   0  0  0  0  0  0  0  0  0  0  0  0
    6.5298    1.0385   -0.7338 H   0  0  0  0  0  0  0  0  0  0  0  0
    6.1371    1.1934    0.9865 H   0  0  0  0  0  0  0  0  0  0  0  0
    4.0822    1.8671    0.3521 H   0  0  0  0  0  0  0  0  0  0  0  0
    4.3757    1.3598   -1.3251 H   0  0  0  0  0  0  0  0  0  0  0  0
    3.1373   -2.0970   -0.5018 H   0  0  0  0  0  0  0  0  0  0  0  0
    3.6386   -1.7049    1.2079 H   0  0  0  0  0  0  0  0  0  0  0  0
    5.2800   -1.7580   -1.3876 H   0  0  0  0  0  0  0  0  0  0  0  0
    5.4783   -2.6775    0.1137 H   0  0  0  0  0  0  0  0  0  0  0  0
    1.3498   -1.6118    0.3159 H   0  0  0  0  0  0  0  0  0  0  0  0
   -1.0726   -0.9618    0.1409 H   0  0  0  0  0  0  0  0  0  0  0  0
    0.1334    2.9530   -0.8919 H   0  0  0  0  0  0  0  0  0  0  0  0
    2.4435    2.3615   -0.7353 H   0  0  0  0  0  0  0  0  0  0  0  0
   -1.7758    3.4584   -1.0268 H   0  0  0  0  0  0  0  0  0  0  0  0
   -5.7769    2.2150   -0.7018 H   0  0  0  0  0  0  0  0  0  0  0  0
   -7.0984    0.8030   -0.3298 H   0  0  0  0  0  0  0  0  0  0  0  0
   -8.6303   -1.0389    0.1551 H   0  0  0  0  0  0  0  0  0  0  0  0
   -5.3408   -3.5965    0.8323 H   0  0  0  0  0  0  0  0  0  0  0  0
   -3.7801   -1.7218    0.3388 H   0  0  0  0  0  0  0  0  0  0  0  0
  1  2  1  0
  2  3  1  0
  3  4  1  0
  4  5  1  0
  5  6  1  0
  6  7  1  0
  5  8  1  0
  8  9  2  0
  9 10  1  0
 10 11  2  0
 11 12  1  0
 12 13  2  0
 11 14  1  0
 14 15  2  0
 15 16  1  0
 16 17  2  0
 16 18  1  0
 18 19  1  0
 19 20  2  0
 19 21  1  0
 21 22  2  0
 22 23  1  0
 23 24  2  0
 24 25  1  0
 24 26  1  0
 26 27  2  0
  7  2  1  0
 13  8  1  0
 20 14  1  0
 27 21  1  0
  1 28  1  0
  1 29  1  0
  1 30  1  0
  3 31  1  0
  3 32  1  0
  4 33  1  0
  4 34  1  0
  6 35  1  0
  6 36  1  0
  7 37  1  0
  7 38  1  0
  9 39  1  0
 10 40  1  0
 12 41  1  0
 13 42  1  0
 15 43  1  0
 18 44  1  0
 22 45  1  0
 23 46  1  0
 26 47  1  0
 27 48  1  0
M  END
$$$$
[H]C(C(=O)N(C([H])([H])[H])[C@]1([H])C([H])([H])[C@]2([H])C([H])([H])N(S(=O)(=O)c3c([H])c([H])c(OC([H])([H])[H])c([H])c3[H])C([H])([H])[C@]21[H])=C([H])c1c([H])c([H])c([H])c([H])c1[H]
     RDKit          3D

 56 59  0  0  0  0  0  0  0  0999 V2000
    7.1928    2.1717    2.8755 C   0  0  0  0  0  0  0  0  0  0  0  0
    5.8377    2.5456    2.7103 O   0  0  0  0  0  0  0  0  0  0  0  0
    5.1478    2.0020    1.6335 C   0  0  0  0  0  0  0  0  0  0  0  0
    5.7370    1.1311    0.7471 C   0  0  0  0  0  0  0  0  0  0  0  0
    5.0918    0.5705   -0.3305 C   0  0  0  0  0  0  0  0  0  0  0  0
    3.7650    0.9111   -0.5264 C   0  0  0  0  0  0  0  0  0  0  0  0
    3.1418    1.7753    0.3338 C   0  0  0  0  0  0  0  0  0  0  0  0
    3.8232    2.3220    1.4106 C   0  0  0  0  0  0  0  0  0  0  0  0
    2.9665    0.1813   -1.9068 S   0  0  0  0  0  0  0  0  0  0  0  0
    1.8918    1.1089   -2.4311 O   0  0  0  0  0  0  0  0  0  0  0  0
    3.9615    0.0076   -2.9935 O   0  0  0  0  0  0  0  0  0  0  0  0
    2.2862   -1.3008   -1.3772 N   0  0  0  0  0  0  0  0  0  0  0  0
    1.2950   -1.0657   -0.3329 C   0  0  0  0  0  0  0  0  0  0  0  0
    0.2478   -1.9873   -0.7201 C   0  0  1  0  0  0  0  0  0  0  0  0
   -1.1915   -1.6659   -0.8259 C   0  0  1  0  0  0  0  0  0  0  0  0
   -0.9837   -2.3592   -2.2337 C   0  0  0  0  0  0  0  0  0  0  0  0
    0.2074   -1.4989   -2.2195 C   0  0  2  0  0  0  0  0  0  0  0  0
    1.5674   -1.8931   -2.4987 C   0  0  0  0  0  0  0  0  0  0  0  0
   -2.0285   -2.5010   -0.0480 N   0  0  0  0  0  0  0  0  0  0  0  0
   -1.5647   -3.9125    0.1715 C   0  0  0  0  0  0  0  0  0  0  0  0
   -3.2274   -2.1894    0.5646 C   0  0  0  0  0  0  0  0  0  0  0  0
   -3.7943   -3.1822    1.2718 O   0  0  0  0  0  0  0  0  0  0  0  0
   -4.0069   -1.0179    0.6073 C   0  0  0  0  0  0  0  0  0  0  0  0
   -3.8355    0.1371    0.0662 C   0  0  0  0  0  0  0  0  0  0  0  0
   -4.8115    1.2217    0.2647 C   0  0  0  0  0  0  0  0  0  0  0  0
   -4.5420    2.4344   -0.3632 C   0  0  0  0  0  0  0  0  0  0  0  0
   -5.4505    3.4609   -0.1851 C   0  0  0  0  0  0  0  0  0  0  0  0
   -6.5721    3.2674    0.5885 C   0  0  0  0  0  0  0  0  0  0  0  0
   -6.8460    2.0815    1.2091 C   0  0  0  0  0  0  0  0  0  0  0  0
   -5.9182    1.0267    1.0297 C   0  0  0  0  0  0  0  0  0  0  0  0
    7.1964    1.0487    2.9967 H   0  0  0  0  0  0  0  0  0  0  0  0
    7.6448    2.6417    3.7725 H   0  0  0  0  0  0  0  0  0  0  0  0
    7.7896    2.3791    1.9572 H   0  0  0  0  0  0  0  0  0  0  0  0
    6.7886    0.8672    0.9105 H   0  0  0  0  0  0  0  0  0  0  0  0
    5.6069   -0.1224   -1.0126 H   0  0  0  0  0  0  0  0  0  0  0  0
    2.0987    2.0180    0.1452 H   0  0  0  0  0  0  0  0  0  0  0  0
    3.2953    3.0007    2.0676 H   0  0  0  0  0  0  0  0  0  0  0  0
    0.9670   -0.0104   -0.4456 H   0  0  0  0  0  0  0  0  0  0  0  0
    1.6886   -1.2427    0.6699 H   0  0  0  0  0  0  0  0  0  0  0  0
    0.4865   -3.0405   -0.7081 H   0  0  0  0  0  0  0  0  0  0  0  0
   -1.4129   -0.6189   -0.9947 H   0  0  0  0  0  0  0  0  0  0  0  0
   -1.7690   -1.9498   -2.8998 H   0  0  0  0  0  0  0  0  0  0  0  0
   -0.8519   -3.4249   -2.1536 H   0  0  0  0  0  0  0  0  0  0  0  0
   -0.0134   -0.4388   -2.2378 H   0  0  0  0  0  0  0  0  0  0  0  0
    1.7268   -2.9903   -2.4285 H   0  0  0  0  0  0  0  0  0  0  0  0
    1.9238   -1.4987   -3.4720 H   0  0  0  0  0  0  0  0  0  0  0  0
   -0.5851   -3.9442    0.6403 H   0  0  0  0  0  0  0  0  0  0  0  0
   -1.6781   -4.5005   -0.7504 H   0  0  0  0  0  0  0  0  0  0  0  0
   -2.2656   -4.3792    0.9075 H   0  0  0  0  0  0  0  0  0  0  0  0
   -4.9480   -1.1265    1.2327 H   0  0  0  0  0  0  0  0  0  0  0  0
   -3.0105    0.4035   -0.5548 H   0  0  0  0  0  0  0  0  0  0  0  0
   -3.6571    2.5642   -0.9647 H   0  0  0  0  0  0  0  0  0  0  0  0
   -5.2337    4.4029   -0.6779 H   0  0  0  0  0  0  0  0  0  0  0  0
   -7.2709    4.0938    0.7113 H   0  0  0  0  0  0  0  0  0  0  0  0
   -7.7241    1.9670    1.8005 H   0  0  0  0  0  0  0  0  0  0  0  0
   -6.1809    0.1177    1.5385 H   0  0  0  0  0  0  0  0  0  0  0  0
  1  2  1  0
  2  3  1  0
  3  4  2  0
  4  5  1  0
  5  6  2  0
  6  7  1  0
  7  8  2  0
  6  9  1  0
  9 10  2  0
  9 11  2  0
  9 12  1  0
 12 13  1  0
 13 14  1  0
 14 15  1  0
 15 16  1  0
 16 17  1  0
 17 18  1  0
 15 19  1  0
 19 20  1  0
 19 21  1  0
 21 22  2  0
 21 23  1  0
 23 24  2  3
 24 25  1  0
 25 26  2  0
 26 27  1  0
 27 28  2  0
 28 29  1  0
 29 30  2  0
  8  3  1  0
 18 12  1  0
 30 25  1  0
 17 14  1  0
  1 31  1  0
  1 32  1  0
  1 33  1  0
  4 34  1  0
  5 35  1  0
  7 36  1  0
  8 37  1  0
 13 38  1  0
 13 39  1  0
 14 40  1  6
 15 41  1  6
 16 42  1  0
 16 43  1  0
 17 44  1  1
 18 45  1  0
 18 46  1  0
 20 47  1  0
 20 48  1  0
 20 49  1  0
 23 50  1  0
 24 51  1  0
 26 52  1  0
 27 53  1  0
 28 54  1  0
 29 55  1  0
 30 56  1  0
M  END
$$$$
[H]Oc1c([H])c([H])c(C([H])([H])[C@@]([H])(C(=O)N([H])[C@]([H])(C(=O)N([H])[C@]([H])(C(=O)N2C([H])([H])C([H])([H])OC([H])([H])C2([H])[H])C([H])([H])C([H])(C([H])([H])[H])C([H])([H])[H])C([H])([H])c2c([H])c([H])c([H])c([H])c2[H])N([H])C(=O)[C@@]2([H])N(C(=O)[C@@]([H])(N([H])[H])C([H])([H])C([H])([H])C([H])([H])N=C(N([H])[H])N([H])[H])C([H])([H])C([H])([H])C2([H])[H])c([H])c1[H]
     RDKit          3D

112115  0  0  0  0  0  0  0  0999 V2000
   -7.1644    1.1914   -2.1450 C   0  0  0  0  0  0  0  0  0  0  0  0
   -5.8612    1.9253   -2.2362 C   0  0  0  0  0  0  0  0  0  0  0  0
   -6.0130    2.9638   -3.3669 C   0  0  0  0  0  0  0  0  0  0  0  0
   -5.4347    2.6501   -1.0454 C   0  0  0  0  0  0  0  0  0  0  0  0
   -5.0903    2.0105    0.2332 C   0  0  2  0  0  0  0  0  0  0  0  0
   -3.9498    1.1733    0.2913 N   0  0  0  0  0  0  0  0  0  0  0  0
   -2.8776    0.3895    0.3594 C   0  0  0  0  0  0  0  0  0  0  0  0
   -2.2584    0.2448    1.5876 O   0  0  0  0  0  0  0  0  0  0  0  0
   -2.1115   -0.4333   -0.5852 C   0  0  2  0  0  0  0  0  0  0  0  0
   -2.7868   -1.2609   -1.5931 C   0  0  0  0  0  0  0  0  0  0  0  0
   -3.7836   -2.2511   -1.1794 C   0  0  0  0  0  0  0  0  0  0  0  0
   -5.0993   -2.0798   -1.6508 C   0  0  0  0  0  0  0  0  0  0  0  0
   -6.1296   -2.9136   -1.3275 C   0  0  0  0  0  0  0  0  0  0  0  0
   -5.9362   -3.9898   -0.5085 C   0  0  0  0  0  0  0  0  0  0  0  0
   -4.6522   -4.1805   -0.0326 C   0  0  0  0  0  0  0  0  0  0  0  0
   -3.5889   -3.3205   -0.3641 C   0  0  0  0  0  0  0  0  0  0  0  0
   -1.0197   -1.1686    0.0327 N   0  0  0  0  0  0  0  0  0  0  0  0
    0.3607   -1.0047   -0.2988 C   0  0  0  0  0  0  0  0  0  0  0  0
    0.6222   -0.1180   -1.2146 O   0  0  0  0  0  0  0  0  0  0  0  0
    1.4550   -1.7146    0.2684 C   0  0  2  0  0  0  0  0  0  0  0  0
    1.2247   -2.7811    1.2746 C   0  0  0  0  0  0  0  0  0  0  0  0
    0.4565   -3.9613    0.8495 C   0  0  0  0  0  0  0  0  0  0  0  0
   -0.0869   -4.8093    1.8384 C   0  0  0  0  0  0  0  0  0  0  0  0
   -0.7773   -5.9535    1.5010 C   0  0  0  0  0  0  0  0  0  0  0  0
   -0.9353   -6.2699    0.1702 C   0  0  0  0  0  0  0  0  0  0  0  0
   -1.6141   -7.4085   -0.2564 O   0  0  0  0  0  0  0  0  0  0  0  0
   -0.4060   -5.4379   -0.8313 C   0  0  0  0  0  0  0  0  0  0  0  0
    0.2880   -4.2876   -0.4564 C   0  0  0  0  0  0  0  0  0  0  0  0
    2.7139   -1.0110    0.5032 N   0  0  0  0  0  0  0  0  0  0  0  0
    3.9362   -1.7025    0.2891 C   0  0  0  0  0  0  0  0  0  0  0  0
    3.7498   -2.9409   -0.1160 O   0  0  0  0  0  0  0  0  0  0  0  0
    5.3107   -1.2803    0.4427 C   0  0  2  0  0  0  0  0  0  0  0  0
    5.7343   -1.6452    1.8863 C   0  0  0  0  0  0  0  0  0  0  0  0
    5.2994   -0.4123    2.6183 C   0  0  0  0  0  0  0  0  0  0  0  0
    5.4009    0.7318    1.6249 C   0  0  0  0  0  0  0  0  0  0  0  0
    5.6593    0.0990    0.3837 N   0  0  0  0  0  0  0  0  0  0  0  0
    6.1844    0.6852   -0.7877 C   0  0  0  0  0  0  0  0  0  0  0  0
    6.3030   -0.0539   -1.8655 O   0  0  0  0  0  0  0  0  0  0  0  0
    6.6562    2.0609   -1.0094 C   0  0  1  0  0  0  0  0  0  0  0  0
    6.4320    2.9962    0.0265 N   0  0  0  0  0  0  0  0  0  0  0  0
    8.1733    1.9796   -1.3617 C   0  0  0  0  0  0  0  0  0  0  0  0
    8.8977    1.3509   -0.2254 C   0  0  0  0  0  0  0  0  0  0  0  0
   10.3787    1.1313   -0.4579 C   0  0  0  0  0  0  0  0  0  0  0  0
   11.1914    2.1956   -0.7083 N   0  0  0  0  0  0  0  0  0  0  0  0
   11.5604    3.3277   -0.7772 C   0  0  0  0  0  0  0  0  0  0  0  0
   12.8793    3.6532   -1.2783 N   0  0  0  0  0  0  0  0  0  0  0  0
   10.7936    4.4723   -0.3921 N   0  0  0  0  0  0  0  0  0  0  0  0
   -6.2661    1.3650    0.9464 C   0  0  0  0  0  0  0  0  0  0  0  0
   -6.2777    0.0838    0.8832 O   0  0  0  0  0  0  0  0  0  0  0  0
   -7.2487    2.0901    1.6241 N   0  0  0  0  0  0  0  0  0  0  0  0
   -7.2543    3.5181    1.7351 C   0  0  0  0  0  0  0  0  0  0  0  0
   -8.5932    3.9725    1.1438 C   0  0  0  0  0  0  0  0  0  0  0  0
   -9.6194    3.4373    1.9540 O   0  0  0  0  0  0  0  0  0  0  0  0
   -9.6377    2.0474    1.7613 C   0  0  0  0  0  0  0  0  0  0  0  0
   -8.3731    1.4156    2.2955 C   0  0  0  0  0  0  0  0  0  0  0  0
   -7.6214    1.0873   -3.1917 H   0  0  0  0  0  0  0  0  0  0  0  0
   -7.9532    1.7389   -1.5668 H   0  0  0  0  0  0  0  0  0  0  0  0
   -7.0210    0.1738   -1.8178 H   0  0  0  0  0  0  0  0  0  0  0  0
   -5.0356    1.2535   -2.5774 H   0  0  0  0  0  0  0  0  0  0  0  0
   -6.6221    2.5365   -4.1915 H   0  0  0  0  0  0  0  0  0  0  0  0
   -6.5864    3.8077   -2.9328 H   0  0  0  0  0  0  0  0  0  0  0  0
   -5.0305    3.3082   -3.6993 H   0  0  0  0  0  0  0  0  0  0  0  0
   -6.1817    3.4976   -0.8915 H   0  0  0  0  0  0  0  0  0  0  0  0
   -4.5150    3.2634   -1.3777 H   0  0  0  0  0  0  0  0  0  0  0  0
   -4.8956    2.8973    0.9628 H   0  0  0  0  0  0  0  0  0  0  0  0
   -3.9784    1.2990    1.6515 H   0  0  0  0  0  0  0  0  0  0  0  0
   -1.5128    0.3775   -1.2059 H   0  0  0  0  0  0  0  0  0  0  0  0
   -1.9680   -1.8225   -2.1781 H   0  0  0  0  0  0  0  0  0  0  0  0
   -3.2085   -0.6078   -2.4208 H   0  0  0  0  0  0  0  0  0  0  0  0
   -5.2820   -1.2422   -2.3315 H   0  0  0  0  0  0  0  0  0  0  0  0
   -7.1320   -2.7336   -1.7250 H   0  0  0  0  0  0  0  0  0  0  0  0
   -6.6986   -4.6983   -0.1959 H   0  0  0  0  0  0  0  0  0  0  0  0
   -4.4019   -5.0324    0.6142 H   0  0  0  0  0  0  0  0  0  0  0  0
   -2.6196   -3.4903    0.0398 H   0  0  0  0  0  0  0  0  0  0  0  0
   -1.2187   -1.8427    0.7858 H   0  0  0  0  0  0  0  0  0  0  0  0
    1.8265   -2.3783   -0.6874 H   0  0  0  0  0  0  0  0  0  0  0  0
    2.1748   -3.0891    1.7908 H   0  0  0  0  0  0  0  0  0  0  0  0
    0.6326   -2.3110    2.1197 H   0  0  0  0  0  0  0  0  0  0  0  0
    0.0207   -4.5949    2.8824 H   0  0  0  0  0  0  0  0  0  0  0  0
   -1.2273   -6.6277    2.2004 H   0  0  0  0  0  0  0  0  0  0  0  0
   -1.1082   -8.3000   -0.4038 H   0  0  0  0  0  0  0  0  0  0  0  0
   -0.5290   -5.6568   -1.8816 H   0  0  0  0  0  0  0  0  0  0  0  0
    0.6357   -3.7044   -1.2931 H   0  0  0  0  0  0  0  0  0  0  0  0
    2.7075   -0.0509    0.8108 H   0  0  0  0  0  0  0  0  0  0  0  0
    5.9987   -1.8818   -0.2484 H   0  0  0  0  0  0  0  0  0  0  0  0
    6.8420   -1.7892    1.9340 H   0  0  0  0  0  0  0  0  0  0  0  0
    5.2523   -2.5763    2.1871 H   0  0  0  0  0  0  0  0  0  0  0  0
    6.0770   -0.1991    3.4226 H   0  0  0  0  0  0  0  0  0  0  0  0
    4.3224   -0.4589    3.1070 H   0  0  0  0  0  0  0  0  0  0  0  0
    6.1608    1.4721    1.9663 H   0  0  0  0  0  0  0  0  0  0  0  0
    4.4538    1.3577    1.5984 H   0  0  0  0  0  0  0  0  0  0  0  0
    6.2162    2.4268   -1.9557 H   0  0  0  0  0  0  0  0  0  0  0  0
    7.2559    3.2971    0.5356 H   0  0  0  0  0  0  0  0  0  0  0  0
    5.9617    3.9074   -0.2903 H   0  0  0  0  0  0  0  0  0  0  0  0
    8.4861    2.9970   -1.5991 H   0  0  0  0  0  0  0  0  0  0  0  0
    8.2153    1.3742   -2.2789 H   0  0  0  0  0  0  0  0  0  0  0  0
    8.7386    1.8243    0.7356 H   0  0  0  0  0  0  0  0  0  0  0  0
    8.4815    0.3045   -0.0956 H   0  0  0  0  0  0  0  0  0  0  0  0
   10.7849    0.6108    0.4969 H   0  0  0  0  0  0  0  0  0  0  0  0
   10.4980    0.2669   -1.1939 H   0  0  0  0  0  0  0  0  0  0  0  0
   13.2918    2.9586   -1.9557 H   0  0  0  0  0  0  0  0  0  0  0  0
   13.3497    4.5178   -0.9621 H   0  0  0  0  0  0  0  0  0  0  0  0
   10.4726    5.0825   -1.1983 H   0  0  0  0  0  0  0  0  0  0  0  0
   10.5515    4.7178    0.5782 H   0  0  0  0  0  0  0  0  0  0  0  0
   -6.4518    4.0435    1.2648 H   0  0  0  0  0  0  0  0  0  0  0  0
   -7.2588    3.7662    2.8538 H   0  0  0  0  0  0  0  0  0  0  0  0
   -8.6462    3.5645    0.1122 H   0  0  0  0  0  0  0  0  0  0  0  0
   -8.5991    5.0853    1.2029 H   0  0  0  0  0  0  0  0  0  0  0  0
   -9.6474    1.8882    0.6647 H   0  0  0  0  0  0  0  0  0  0  0  0
  -10.5473    1.5966    2.2129 H   0  0  0  0  0  0  0  0  0  0  0  0
   -8.3559    1.6860    3.3869 H   0  0  0  0  0  0  0  0  0  0  0  0
   -8.3692    0.3301    2.1607 H   0  0  0  0  0  0  0  0  0  0  0  0
  1  2  1  0
  2  3  1  0
  2  4  1  0
  4  5  1  0
  5  6  1  0
  6  7  1  0
  7  8  2  0
  7  9  1  0
  9 10  1  0
 10 11  1  0
 11 12  2  0
 12 13  1  0
 13 14  2  0
 14 15  1  0
 15 16  2  0
  9 17  1  0
 17 18  1  0
 18 19  2  0
 18 20  1  0
 20 21  1  0
 21 22  1  0
 22 23  2  0
 23 24  1  0
 24 25  2  0
 25 26  1  0
 25 27  1  0
 27 28  2  0
 20 29  1  0
 29 30  1  0
 30 31  2  0
 30 32  1  0
 32 33  1  0
 33 34  1  0
 34 35  1  0
 35 36  1  0
 36 37  1  0
 37 38  2  0
 37 39  1  0
 39 40  1  0
 39 41  1  0
 41 42  1  0
 42 43  1  0
 43 44  1  0
 44 45  2  3
 45 46  1  0
 45 47  1  0
  5 48  1  0
 48 49  2  0
 48 50  1  0
 50 51  1  0
 51 52  1  0
 52 53  1  0
 53 54  1  0
 54 55  1  0
 16 11  1  0
 28 22  1  0
 36 32  1  0
 55 50  1  0
  1 56  1  0
  1 57  1  0
  1 58  1  0
  2 59  1  0
  3 60  1  0
  3 61  1  0
  3 62  1  0
  4 63  1  0
  4 64  1  0
  5 65  1  1
  6 66  1  0
  9 67  1  6
 10 68  1  0
 10 69  1  0
 12 70  1  0
 13 71  1  0
 14 72  1  0
 15 73  1  0
 16 74  1  0
 17 75  1  0
 20 76  1  6
 21 77  1  0
 21 78  1  0
 23 79  1  0
 24 80  1  0
 26 81  1  0
 27 82  1  0
 28 83  1  0
 29 84  1  0
 32 85  1  6
 33 86  1  0
 33 87  1  0
 34 88  1  0
 34 89  1  0
 35 90  1  0
 35 91  1  0
 39 92  1  6
 40 93  1  0
 40 94  1  0
 41 95  1  0
 41 96  1  0
 42 97  1  0
 42 98  1  0
 43 99  1  0
 43100  1  0
 46101  1  0
 46102  1  0
 47103  1  0
 47104  1  0
 51105  1  0
 51106  1  0
 52107  1  0
 52108  1  0
 54109  1  0
 54110  1  0
 55111  1  0
 55112  1  0
M  END
$$$$
[H]c1c([H])c(N([H])C(=O)N2C([H])([H])C([H])([H])C([H])(N([H])C(=O)N([H])c3c([H])c([H])c(C(F)(F)F)c([H])c3[H])C([H])([H])C2([H])[H])c([H])c([H])c1OC(F)(F)F
     RDKit          3D

 54 56  0  0  0  0  0  0  0  0999 V2000
   11.6304   -0.4333   -0.3454 F   0  0  0  0  0  0  0  0  0  0  0  0
   10.3116   -0.1556   -0.4502 C   0  0  0  0  0  0  0  0  0  0  0  0
    9.9454    1.0993    0.0195 F   0  0  0  0  0  0  0  0  0  0  0  0
    9.9924   -0.1743   -1.8215 F   0  0  0  0  0  0  0  0  0  0  0  0
    9.4725   -1.1726    0.1496 O   0  0  0  0  0  0  0  0  0  0  0  0
    8.0982   -0.8566    0.0435 C   0  0  0  0  0  0  0  0  0  0  0  0
    7.3715   -1.2789   -1.0570 C   0  0  0  0  0  0  0  0  0  0  0  0
    6.0523   -0.9610   -1.1324 C   0  0  0  0  0  0  0  0  0  0  0  0
    5.4365   -0.2112   -0.0940 C   0  0  0  0  0  0  0  0  0  0  0  0
    4.0477    0.0096   -0.2670 N   0  0  0  0  0  0  0  0  0  0  0  0
    3.1491    0.1615    0.7826 C   0  0  0  0  0  0  0  0  0  0  0  0
    3.4679    0.1364    1.9788 O   0  0  0  0  0  0  0  0  0  0  0  0
    1.7462    0.3509    0.5239 N   0  0  0  0  0  0  0  0  0  0  0  0
    0.8240    0.4939    1.5931 C   0  0  0  0  0  0  0  0  0  0  0  0
   -0.4468   -0.2625    1.1922 C   0  0  0  0  0  0  0  0  0  0  0  0
   -0.9933    0.5486    0.0059 C   0  0  0  0  0  0  0  0  0  0  0  0
   -0.0759    0.4923   -1.1794 C   0  0  0  0  0  0  0  0  0  0  0  0
    1.3673    0.3696   -0.8431 C   0  0  0  0  0  0  0  0  0  0  0  0
   -2.2859    0.0359   -0.2956 N   0  0  0  0  0  0  0  0  0  0  0  0
   -3.4889    0.4914    0.3322 C   0  0  0  0  0  0  0  0  0  0  0  0
   -3.3152    1.4184    1.2130 O   0  0  0  0  0  0  0  0  0  0  0  0
   -4.6943    0.0154    0.0317 N   0  0  0  0  0  0  0  0  0  0  0  0
   -6.0598   -0.0158    0.1323 C   0  0  0  0  0  0  0  0  0  0  0  0
   -6.7065    0.4657    1.3010 C   0  0  0  0  0  0  0  0  0  0  0  0
   -8.0762    0.4791    1.3847 C   0  0  0  0  0  0  0  0  0  0  0  0
   -8.8726    0.0367    0.3522 C   0  0  0  0  0  0  0  0  0  0  0  0
   -8.2700   -0.4388   -0.7991 C   0  0  0  0  0  0  0  0  0  0  0  0
   -6.9093   -0.4553   -0.8838 C   0  0  0  0  0  0  0  0  0  0  0  0
  -10.3581    0.0343    0.4375 C   0  0  0  0  0  0  0  0  0  0  0  0
  -10.7177   -1.0769    1.2212 F   0  0  0  0  0  0  0  0  0  0  0  0
  -10.8514    1.1414    1.1042 F   0  0  0  0  0  0  0  0  0  0  0  0
  -10.8545   -0.0991   -0.8177 F   0  0  0  0  0  0  0  0  0  0  0  0
    6.1634    0.1891    0.9683 C   0  0  0  0  0  0  0  0  0  0  0  0
    7.5110   -0.1451    1.0276 C   0  0  0  0  0  0  0  0  0  0  0  0
    7.8910   -1.8439   -1.8038 H   0  0  0  0  0  0  0  0  0  0  0  0
    5.4780   -1.2982   -1.9625 H   0  0  0  0  0  0  0  0  0  0  0  0
    3.6615    0.0868   -1.2501 H   0  0  0  0  0  0  0  0  0  0  0  0
    0.5328    1.5702    1.6733 H   0  0  0  0  0  0  0  0  0  0  0  0
    1.2178    0.1391    2.5885 H   0  0  0  0  0  0  0  0  0  0  0  0
   -1.2120   -0.2177    2.0179 H   0  0  0  0  0  0  0  0  0  0  0  0
   -0.1989   -1.2745    0.8290 H   0  0  0  0  0  0  0  0  0  0  0  0
   -1.0652    1.5918    0.4221 H   0  0  0  0  0  0  0  0  0  0  0  0
   -0.3540   -0.4401   -1.7779 H   0  0  0  0  0  0  0  0  0  0  0  0
   -0.2159    1.4190   -1.7944 H   0  0  0  0  0  0  0  0  0  0  0  0
    1.8087   -0.5837   -1.3019 H   0  0  0  0  0  0  0  0  0  0  0  0
    1.9580    1.2396   -1.3034 H   0  0  0  0  0  0  0  0  0  0  0  0
   -2.4254   -0.7393   -1.0159 H   0  0  0  0  0  0  0  0  0  0  0  0
   -4.4719   -0.9040   -0.7689 H   0  0  0  0  0  0  0  0  0  0  0  0
   -6.0867    0.8203    2.1122 H   0  0  0  0  0  0  0  0  0  0  0  0
   -8.6067    0.8201    2.2752 H   0  0  0  0  0  0  0  0  0  0  0  0
   -8.9180   -0.7903   -1.6268 H   0  0  0  0  0  0  0  0  0  0  0  0
   -6.4413   -0.8039   -1.7854 H   0  0  0  0  0  0  0  0  0  0  0  0
    5.7777    0.7740    1.7820 H   0  0  0  0  0  0  0  0  0  0  0  0
    8.0593    0.2023    1.8970 H   0  0  0  0  0  0  0  0  0  0  0  0
  1  2  1  0
  2  3  1  0
  2  4  1  0
  2  5  1  0
  5  6  1  0
  6  7  2  0
  7  8  1  0
  8  9  2  0
  9 10  1  0
 10 11  1  0
 11 12  2  0
 11 13  1  0
 13 14  1  0
 14 15  1  0
 15 16  1  0
 16 17  1  0
 17 18  1  0
 16 19  1  0
 19 20  1  0
 20 21  2  0
 20 22  1  0
 22 23  1  0
 23 24  2  0
 24 25  1  0
 25 26  2  0
 26 27  1  0
 27 28  2  0
 26 29  1  0
 29 30  1  0
 29 31  1  0
 29 32  1  0
  9 33  1  0
 33 34  2  0
 34  6  1  0
 18 13  1  0
 28 23  1  0
  7 35  1  0
  8 36  1  0
 10 37  1  0
 14 38  1  0
 14 39  1  0
 15 40  1  0
 15 41  1  0
 16 42  1  0
 17 43  1  0
 17 44  1  0
 18 45  1  0
 18 46  1  0
 19 47  1  0
 22 48  1  0
 24 49  1  0
 25 50  1  0
 27 51  1  0
 28 52  1  0
 33 53  1  0
 34 54  1  0
M  END
$$$$
[H]c1c([H])c([H])c([C@]2([H])C([H])([H])N(S(=O)(=O)c3c([H])c([H])c(OC([H])([H])[H])c([H])c3[H])[C@]([H])(C(=O)N3C([H])([H])C([H])([H])C([H])([H])C3([H])[H])C2([H])[H])c([H])c1[H]
     RDKit          3D

 55 58  0  0  0  0  0  0  0  0999 V2000
    7.1685    1.7595   -1.5037 C   0  0  0  0  0  0  0  0  0  0  0  0
    6.5940    0.5060   -1.8511 O   0  0  0  0  0  0  0  0  0  0  0  0
    5.4104    0.1463   -1.2153 C   0  0  0  0  0  0  0  0  0  0  0  0
    4.7823   -1.0529   -1.4912 C   0  0  0  0  0  0  0  0  0  0  0  0
    3.6089   -1.4012   -0.8560 C   0  0  0  0  0  0  0  0  0  0  0  0
    3.0051   -0.5802    0.0791 C   0  0  0  0  0  0  0  0  0  0  0  0
    3.6284    0.6161    0.3568 C   0  0  0  0  0  0  0  0  0  0  0  0
    4.7996    0.9564   -0.2817 C   0  0  0  0  0  0  0  0  0  0  0  0
    1.5174   -1.0701    0.8588 S   0  0  0  0  0  0  0  0  0  0  0  0
    1.4928   -0.3922    2.2190 O   0  0  0  0  0  0  0  0  0  0  0  0
    1.5577   -2.5369    1.0687 O   0  0  0  0  0  0  0  0  0  0  0  0
    0.1972   -0.5489   -0.0841 N   0  0  0  0  0  0  0  0  0  0  0  0
    0.1494    0.8703   -0.2166 C   0  0  0  0  0  0  0  0  0  0  0  0
   -0.9322    1.3001    0.7840 C   0  0  2  0  0  0  0  0  0  0  0  0
   -1.9616    0.2256    0.5248 C   0  0  0  0  0  0  0  0  0  0  0  0
   -1.0758   -1.0159    0.4261 C   0  0  1  0  0  0  0  0  0  0  0  0
   -1.6649   -2.0104   -0.5082 C   0  0  0  0  0  0  0  0  0  0  0  0
   -1.0547   -2.2270   -1.6062 O   0  0  0  0  0  0  0  0  0  0  0  0
   -2.8558   -2.6754   -0.1677 N   0  0  0  0  0  0  0  0  0  0  0  0
   -3.6088   -2.5198    1.0381 C   0  0  0  0  0  0  0  0  0  0  0  0
   -4.0498   -3.9564    1.3332 C   0  0  0  0  0  0  0  0  0  0  0  0
   -3.8937   -4.7068    0.0294 C   0  0  0  0  0  0  0  0  0  0  0  0
   -3.5408   -3.6384   -0.9858 C   0  0  0  0  0  0  0  0  0  0  0  0
   -1.4100    2.6559    0.4996 C   0  0  0  0  0  0  0  0  0  0  0  0
   -1.3564    3.6043    1.4985 C   0  0  0  0  0  0  0  0  0  0  0  0
   -1.7852    4.8980    1.3105 C   0  0  0  0  0  0  0  0  0  0  0  0
   -2.2821    5.2510    0.0847 C   0  0  0  0  0  0  0  0  0  0  0  0
   -2.3547    4.3317   -0.9474 C   0  0  0  0  0  0  0  0  0  0  0  0
   -1.9127    3.0382   -0.7179 C   0  0  0  0  0  0  0  0  0  0  0  0
    7.4497    1.8294   -0.4508 H   0  0  0  0  0  0  0  0  0  0  0  0
    8.0116    1.9352   -2.2120 H   0  0  0  0  0  0  0  0  0  0  0  0
    6.4341    2.5914   -1.6963 H   0  0  0  0  0  0  0  0  0  0  0  0
    5.2592   -1.6969   -2.2270 H   0  0  0  0  0  0  0  0  0  0  0  0
    3.1399   -2.3667   -1.1048 H   0  0  0  0  0  0  0  0  0  0  0  0
    3.2058    1.2933    1.0753 H   0  0  0  0  0  0  0  0  0  0  0  0
    5.2956    1.9098   -0.0598 H   0  0  0  0  0  0  0  0  0  0  0  0
   -0.2802    1.0916   -1.2353 H   0  0  0  0  0  0  0  0  0  0  0  0
    1.0979    1.3772   -0.0541 H   0  0  0  0  0  0  0  0  0  0  0  0
   -0.5658    1.1732    1.8083 H   0  0  0  0  0  0  0  0  0  0  0  0
   -2.7166    0.1591    1.3175 H   0  0  0  0  0  0  0  0  0  0  0  0
   -2.4453    0.3413   -0.4708 H   0  0  0  0  0  0  0  0  0  0  0  0
   -0.9730   -1.4099    1.4523 H   0  0  0  0  0  0  0  0  0  0  0  0
   -4.4955   -1.8892    0.8250 H   0  0  0  0  0  0  0  0  0  0  0  0
   -2.9961   -2.1298    1.8849 H   0  0  0  0  0  0  0  0  0  0  0  0
   -3.3548   -4.3376    2.1075 H   0  0  0  0  0  0  0  0  0  0  0  0
   -5.1113   -3.9814    1.6551 H   0  0  0  0  0  0  0  0  0  0  0  0
   -4.7890   -5.2843   -0.2455 H   0  0  0  0  0  0  0  0  0  0  0  0
   -2.9733   -5.3532    0.1119 H   0  0  0  0  0  0  0  0  0  0  0  0
   -4.4538   -3.1713   -1.4201 H   0  0  0  0  0  0  0  0  0  0  0  0
   -2.8829   -4.0278   -1.7997 H   0  0  0  0  0  0  0  0  0  0  0  0
   -0.9636    3.3523    2.4911 H   0  0  0  0  0  0  0  0  0  0  0  0
   -1.7226    5.5985    2.1193 H   0  0  0  0  0  0  0  0  0  0  0  0
   -2.6242    6.2561   -0.0893 H   0  0  0  0  0  0  0  0  0  0  0  0
   -2.7448    4.5962   -1.9211 H   0  0  0  0  0  0  0  0  0  0  0  0
   -1.9738    2.3166   -1.5402 H   0  0  0  0  0  0  0  0  0  0  0  0
  1  2  1  0
  2  3  1  0
  3  4  2  0
  4  5  1  0
  5  6  2  0
  6  7  1  0
  7  8  2  0
  6  9  1  0
  9 10  2  0
  9 11  2  0
  9 12  1  0
 12 13  1  0
 13 14  1  0
 14 15  1  0
 15 16  1  0
 16 17  1  0
 17 18  2  0
 17 19  1  0
 19 20  1  0
 20 21  1  0
 21 22  1  0
 22 23  1  0
 14 24  1  0
 24 25  2  0
 25 26  1  0
 26 27  2  0
 27 28  1  0
 28 29  2  0
  8  3  1  0
 16 12  1  0
 23 19  1  0
 29 24  1  0
  1 30  1  0
  1 31  1  0
  1 32  1  0
  4 33  1  0
  5 34  1  0
  7 35  1  0
  8 36  1  0
 13 37  1  0
 13 38  1  0
 14 39  1  1
 15 40  1  0
 15 41  1  0
 16 42  1  1
 20 43  1  0
 20 44  1  0
 21 45  1  0
 21 46  1  0
 22 47  1  0
 22 48  1  0
 23 49  1  0
 23 50  1  0
 25 51  1  0
 26 52  1  0
 27 53  1  0
 28 54  1  0
 29 55  1  0
M  END
$$$$
[H]OC(=O)[C@@]([H])(N([H])C(=O)[C@@]([H])(N([H])C(=O)[C@@]([H])(N([H])C(=O)[C@@]([H])(N([H])C(=O)[C@@]([H])(N([H])[H])C([H])([H])C([H])([H])C([H])([H])N=C(N([H])[H])N([H])[H])C([H])([H])c1c([H])c([H])c([H])c([H])c1[H])C([H])([H])c1c([H])c([H])c([H])c([H])c1[H])C([H])([H])C([H])(C([H])([H])[H])C([H])([H])[H])C([H])([H])c1c([H])c([H])c([H])c([H])c1[H]
     RDKit          3D

105107  0  0  0  0  0  0  0  0999 V2000
   -2.6974   -3.3882   -3.8137 C   0  0  0  0  0  0  0  0  0  0  0  0
   -3.4826   -4.0107   -2.6782 C   0  0  0  0  0  0  0  0  0  0  0  0
   -2.5474   -4.8301   -1.8332 C   0  0  0  0  0  0  0  0  0  0  0  0
   -4.3518   -3.0606   -1.9520 C   0  0  0  0  0  0  0  0  0  0  0  0
   -3.7330   -1.8860   -1.2852 C   0  0  2  0  0  0  0  0  0  0  0  0
   -2.7768   -2.2461   -0.2259 N   0  0  0  0  0  0  0  0  0  0  0  0
   -1.4358   -1.8402   -0.2876 C   0  0  0  0  0  0  0  0  0  0  0  0
   -1.1863   -1.1163   -1.3515 O   0  0  0  0  0  0  0  0  0  0  0  0
   -0.3444   -2.1015    0.6037 C   0  0  2  0  0  0  0  0  0  0  0  0
   -0.5408   -1.5692    1.9945 C   0  0  0  0  0  0  0  0  0  0  0  0
   -1.6569   -1.9984    2.7927 C   0  0  0  0  0  0  0  0  0  0  0  0
   -1.7053   -3.2440    3.3730 C   0  0  0  0  0  0  0  0  0  0  0  0
   -2.7255   -3.6250    4.2373 C   0  0  0  0  0  0  0  0  0  0  0  0
   -3.7069   -2.7289    4.5117 C   0  0  0  0  0  0  0  0  0  0  0  0
   -3.7260   -1.4712    3.9694 C   0  0  0  0  0  0  0  0  0  0  0  0
   -2.6841   -1.1477    3.1162 C   0  0  0  0  0  0  0  0  0  0  0  0
    0.8832   -1.5347    0.0234 N   0  0  0  0  0  0  0  0  0  0  0  0
    2.1476   -1.4354    0.5377 C   0  0  0  0  0  0  0  0  0  0  0  0
    2.4357   -1.8439    1.6906 O   0  0  0  0  0  0  0  0  0  0  0  0
    3.1986   -0.8004   -0.3225 C   0  0  2  0  0  0  0  0  0  0  0  0
    4.2556   -1.7614   -0.7986 C   0  0  0  0  0  0  0  0  0  0  0  0
    5.0417   -2.4302    0.2233 C   0  0  0  0  0  0  0  0  0  0  0  0
    6.1868   -1.8422    0.6895 C   0  0  0  0  0  0  0  0  0  0  0  0
    6.9962   -2.3862    1.6712 C   0  0  0  0  0  0  0  0  0  0  0  0
    6.6546   -3.5968    2.2348 C   0  0  0  0  0  0  0  0  0  0  0  0
    5.5119   -4.2120    1.7868 C   0  0  0  0  0  0  0  0  0  0  0  0
    4.7062   -3.6642    0.8048 C   0  0  0  0  0  0  0  0  0  0  0  0
    3.8264    0.2569    0.5085 N   0  0  0  0  0  0  0  0  0  0  0  0
    3.7836    1.5972    0.0912 C   0  0  0  0  0  0  0  0  0  0  0  0
    3.2190    1.9302   -1.0217 O   0  0  0  0  0  0  0  0  0  0  0  0
    4.3411    2.7286    0.8352 C   0  0  1  0  0  0  0  0  0  0  0  0
    4.8388    2.4016    2.1382 N   0  0  0  0  0  0  0  0  0  0  0  0
    5.4631    3.4555    0.0701 C   0  0  0  0  0  0  0  0  0  0  0  0
    6.6323    2.5555   -0.2206 C   0  0  0  0  0  0  0  0  0  0  0  0
    7.6527    3.3969   -0.9800 C   0  0  0  0  0  0  0  0  0  0  0  0
    8.0106    4.5431   -0.1328 N   0  0  0  0  0  0  0  0  0  0  0  0
    9.0131    5.2565   -0.4622 C   0  0  0  0  0  0  0  0  0  0  0  0
    9.3842    6.3658    0.3281 N   0  0  0  0  0  0  0  0  0  0  0  0
    9.7746    4.9408   -1.6217 N   0  0  0  0  0  0  0  0  0  0  0  0
   -4.6897   -0.9041   -0.8133 C   0  0  0  0  0  0  0  0  0  0  0  0
   -4.6717   -0.5668    0.4240 O   0  0  0  0  0  0  0  0  0  0  0  0
   -5.6653   -0.2595   -1.5846 N   0  0  0  0  0  0  0  0  0  0  0  0
   -6.6308    0.7320   -1.0953 C   0  0  1  0  0  0  0  0  0  0  0  0
   -6.1672    2.1104   -1.5340 C   0  0  0  0  0  0  0  0  0  0  0  0
   -7.0803    3.1505   -1.0817 C   0  0  0  0  0  0  0  0  0  0  0  0
   -6.9648    3.6578    0.2219 C   0  0  0  0  0  0  0  0  0  0  0  0
   -7.7697    4.6642    0.6882 C   0  0  0  0  0  0  0  0  0  0  0  0
   -8.7508    5.2431   -0.1101 C   0  0  0  0  0  0  0  0  0  0  0  0
   -8.8872    4.7638   -1.3983 C   0  0  0  0  0  0  0  0  0  0  0  0
   -8.0740    3.7671   -1.8261 C   0  0  0  0  0  0  0  0  0  0  0  0
   -7.9031    0.4137   -1.7392 C   0  0  0  0  0  0  0  0  0  0  0  0
   -9.0696    1.0613   -1.4089 O   0  0  0  0  0  0  0  0  0  0  0  0
   -7.9929   -0.4782   -2.6310 O   0  0  0  0  0  0  0  0  0  0  0  0
   -3.3293   -2.7258   -4.4461 H   0  0  0  0  0  0  0  0  0  0  0  0
   -1.7410   -2.9439   -3.5087 H   0  0  0  0  0  0  0  0  0  0  0  0
   -2.4168   -4.2490   -4.4996 H   0  0  0  0  0  0  0  0  0  0  0  0
   -4.1466   -4.7778   -3.2114 H   0  0  0  0  0  0  0  0  0  0  0  0
   -1.4950   -4.4870   -1.9191 H   0  0  0  0  0  0  0  0  0  0  0  0
   -2.9033   -4.7853   -0.7835 H   0  0  0  0  0  0  0  0  0  0  0  0
   -2.6439   -5.9025   -2.1310 H   0  0  0  0  0  0  0  0  0  0  0  0
   -5.2409   -2.8125   -2.5652 H   0  0  0  0  0  0  0  0  0  0  0  0
   -4.8072   -3.6690   -1.0955 H   0  0  0  0  0  0  0  0  0  0  0  0
   -3.0666   -1.3956   -2.0785 H   0  0  0  0  0  0  0  0  0  0  0  0
   -3.1143   -2.8199    0.5659 H   0  0  0  0  0  0  0  0  0  0  0  0
   -0.1028   -3.2020    0.6719 H   0  0  0  0  0  0  0  0  0  0  0  0
    0.4208   -1.8129    2.5692 H   0  0  0  0  0  0  0  0  0  0  0  0
   -0.4987   -0.4376    1.9844 H   0  0  0  0  0  0  0  0  0  0  0  0
   -0.9565   -4.0201    3.2086 H   0  0  0  0  0  0  0  0  0  0  0  0
   -2.7449   -4.6211    4.6932 H   0  0  0  0  0  0  0  0  0  0  0  0
   -4.5079   -2.9913    5.1872 H   0  0  0  0  0  0  0  0  0  0  0  0
   -4.5241   -0.7685    4.2038 H   0  0  0  0  0  0  0  0  0  0  0  0
   -2.7242   -0.1276    2.6910 H   0  0  0  0  0  0  0  0  0  0  0  0
    0.7306   -1.1456   -0.9687 H   0  0  0  0  0  0  0  0  0  0  0  0
    2.7281   -0.3176   -1.1618 H   0  0  0  0  0  0  0  0  0  0  0  0
    4.9111   -1.1693   -1.5062 H   0  0  0  0  0  0  0  0  0  0  0  0
    3.8142   -2.5335   -1.4537 H   0  0  0  0  0  0  0  0  0  0  0  0
    6.4889   -0.8897    0.2646 H   0  0  0  0  0  0  0  0  0  0  0  0
    7.8905   -1.8873    2.0154 H   0  0  0  0  0  0  0  0  0  0  0  0
    7.2633   -4.0793    3.0229 H   0  0  0  0  0  0  0  0  0  0  0  0
    5.2720   -5.1642    2.2471 H   0  0  0  0  0  0  0  0  0  0  0  0
    3.8144   -4.1580    0.4626 H   0  0  0  0  0  0  0  0  0  0  0  0
    4.3095    0.0401    1.4073 H   0  0  0  0  0  0  0  0  0  0  0  0
    3.5348    3.5080    1.0139 H   0  0  0  0  0  0  0  0  0  0  0  0
    4.8280    3.1755    2.8223 H   0  0  0  0  0  0  0  0  0  0  0  0
    5.7354    1.8771    2.1010 H   0  0  0  0  0  0  0  0  0  0  0  0
    5.0075    3.8138   -0.8780 H   0  0  0  0  0  0  0  0  0  0  0  0
    5.8196    4.2541    0.7202 H   0  0  0  0  0  0  0  0  0  0  0  0
    7.1393    2.2190    0.7176 H   0  0  0  0  0  0  0  0  0  0  0  0
    6.4043    1.6600   -0.7925 H   0  0  0  0  0  0  0  0  0  0  0  0
    8.5626    2.7394   -1.1438 H   0  0  0  0  0  0  0  0  0  0  0  0
    7.3261    3.7443   -1.9516 H   0  0  0  0  0  0  0  0  0  0  0  0
   10.1862    6.9522    0.0579 H   0  0  0  0  0  0  0  0  0  0  0  0
    8.8525    6.6030    1.1926 H   0  0  0  0  0  0  0  0  0  0  0  0
   10.7983    4.9855   -1.6371 H   0  0  0  0  0  0  0  0  0  0  0  0
    9.2473    4.6532   -2.4803 H   0  0  0  0  0  0  0  0  0  0  0  0
   -5.7376   -0.4830   -2.6033 H   0  0  0  0  0  0  0  0  0  0  0  0
   -6.6462    0.7775    0.0157 H   0  0  0  0  0  0  0  0  0  0  0  0
   -5.1711    2.3208   -1.0745 H   0  0  0  0  0  0  0  0  0  0  0  0
   -6.1056    2.1755   -2.6479 H   0  0  0  0  0  0  0  0  0  0  0  0
   -6.2369    3.2673    0.9057 H   0  0  0  0  0  0  0  0  0  0  0  0
   -7.6892    5.0662    1.7082 H   0  0  0  0  0  0  0  0  0  0  0  0
   -9.3747    6.0308    0.2586 H   0  0  0  0  0  0  0  0  0  0  0  0
   -9.6527    5.2029   -2.0408 H   0  0  0  0  0  0  0  0  0  0  0  0
   -8.1866    3.3968   -2.8552 H   0  0  0  0  0  0  0  0  0  0  0  0
   -9.6604    0.9013   -0.6309 H   0  0  0  0  0  0  0  0  0  0  0  0
  1  2  1  0
  2  3  1  0
  2  4  1  0
  4  5  1  0
  5  6  1  0
  6  7  1  0
  7  8  2  0
  7  9  1  0
  9 10  1  0
 10 11  1  0
 11 12  2  0
 12 13  1  0
 13 14  2  0
 14 15  1  0
 15 16  2  0
  9 17  1  0
 17 18  1  0
 18 19  2  0
 18 20  1  0
 20 21  1  0
 21 22  1  0
 22 23  2  0
 23 24  1  0
 24 25  2  0
 25 26  1  0
 26 27  2  0
 20 28  1  0
 28 29  1  0
 29 30  2  0
 29 31  1  0
 31 32  1  0
 31 33  1  0
 33 34  1  0
 34 35  1  0
 35 36  1  0
 36 37  2  3
 37 38  1  0
 37 39  1  0
  5 40  1  0
 40 41  2  0
 40 42  1  0
 42 43  1  0
 43 44  1  0
 44 45  1  0
 45 46  2  0
 46 47  1  0
 47 48  2  0
 48 49  1  0
 49 50  2  0
 43 51  1  0
 51 52  1  0
 51 53  2  0
 16 11  1  0
 27 22  1  0
 50 45  1  0
  1 54  1  0
  1 55  1  0
  1 56  1  0
  2 57  1  0
  3 58  1  0
  3 59  1  0
  3 60  1  0
  4 61  1  0
  4 62  1  0
  5 63  1  6
  6 64  1  0
  9 65  1  1
 10 66  1  0
 10 67  1  0
 12 68  1  0
 13 69  1  0
 14 70  1  0
 15 71  1  0
 16 72  1  0
 17 73  1  0
 20 74  1  6
 21 75  1  0
 21 76  1  0
 23 77  1  0
 24 78  1  0
 25 79  1  0
 26 80  1  0
 27 81  1  0
 28 82  1  0
 31 83  1  1
 32 84  1  0
 32 85  1  0
 33 86  1  0
 33 87  1  0
 34 88  1  0
 34 89  1  0
 35 90  1  0
 35 91  1  0
 38 92  1  0
 38 93  1  0
 39 94  1  0
 39 95  1  0
 42 96  1  0
 43 97  1  1
 44 98  1  0
 44 99  1  0
 46100  1  0
 47101  1  0
 48102  1  0
 49103  1  0
 50104  1  0
 52105  1  0
M  END
$$$$
[H]OC(=O)C([H])([H])[C@@]([H])(C(=O)O[H])N([H])C(=O)[C@@]([H])(N([H])C(=O)[C@@]([H])(N([H])C(=O)[C@@]([H])(N([H])C(=O)[C@@]([H])(N([H])C(=O)[C@@]([H])(N([H])C(=O)[C@@]([H])(N([H])[H])C([H])([H])C([H])(C([H])([H])[H])C([H])([H])[H])C([H])([H])c1c([H])c([H])c([H])c([H])c1[H])C([H])([H])C(=O)O[H])C([H])([H])C([H])(C([H])([H])[H])C([H])([H])[H])C([H])([H])C(=O)O[H])C([H])([H])C(=O)O[H]
     RDKit          3D

113113  0  0  0  0  0  0  0  0999 V2000
  -11.3898   -1.0413   -2.4819 C   0  0  0  0  0  0  0  0  0  0  0  0
  -10.1886   -1.8473   -2.1388 C   0  0  0  0  0  0  0  0  0  0  0  0
  -10.0455   -3.0073   -3.1047 C   0  0  0  0  0  0  0  0  0  0  0  0
  -10.1142   -2.3726   -0.7416 C   0  0  0  0  0  0  0  0  0  0  0  0
  -10.1168   -1.2497    0.2914 C   0  0  2  0  0  0  0  0  0  0  0  0
  -11.3493   -0.4855    0.1717 N   0  0  0  0  0  0  0  0  0  0  0  0
   -8.9517   -0.3687    0.1083 C   0  0  0  0  0  0  0  0  0  0  0  0
   -9.1493    0.7361   -0.4824 O   0  0  0  0  0  0  0  0  0  0  0  0
   -7.6608   -0.6797    0.5443 N   0  0  0  0  0  0  0  0  0  0  0  0
   -6.5085    0.2206    0.3244 C   0  0  1  0  0  0  0  0  0  0  0  0
   -6.6050    1.2270    1.4783 C   0  0  0  0  0  0  0  0  0  0  0  0
   -5.5530    2.2413    1.4989 C   0  0  0  0  0  0  0  0  0  0  0  0
   -5.6410    3.3974    0.7493 C   0  0  0  0  0  0  0  0  0  0  0  0
   -4.6900    4.3867    0.7846 C   0  0  0  0  0  0  0  0  0  0  0  0
   -3.5787    4.2717    1.5854 C   0  0  0  0  0  0  0  0  0  0  0  0
   -3.4565    3.1369    2.3449 C   0  0  0  0  0  0  0  0  0  0  0  0
   -4.4301    2.1315    2.3039 C   0  0  0  0  0  0  0  0  0  0  0  0
   -5.2739   -0.5596    0.3351 C   0  0  0  0  0  0  0  0  0  0  0  0
   -5.3605   -1.7371    0.8247 O   0  0  0  0  0  0  0  0  0  0  0  0
   -4.0143   -0.1371   -0.1423 N   0  0  0  0  0  0  0  0  0  0  0  0
   -2.8276   -1.0247   -0.0613 C   0  0  1  0  0  0  0  0  0  0  0  0
   -2.7995   -1.8611   -1.3179 C   0  0  0  0  0  0  0  0  0  0  0  0
   -2.7049   -1.1033   -2.5486 C   0  0  0  0  0  0  0  0  0  0  0  0
   -2.7150   -1.6971   -3.8004 O   0  0  0  0  0  0  0  0  0  0  0  0
   -2.6096    0.1550   -2.5151 O   0  0  0  0  0  0  0  0  0  0  0  0
   -1.6668   -0.1957    0.1538 C   0  0  0  0  0  0  0  0  0  0  0  0
   -1.6539    1.0680    0.1223 O   0  0  0  0  0  0  0  0  0  0  0  0
   -0.3950   -0.7887    0.4356 N   0  0  0  0  0  0  0  0  0  0  0  0
    0.7773    0.0162    0.6722 C   0  0  1  0  0  0  0  0  0  0  0  0
    1.3345   -0.1137    2.0460 C   0  0  0  0  0  0  0  0  0  0  0  0
    0.4745    0.2690    3.1905 C   0  0  0  0  0  0  0  0  0  0  0  0
    1.3470    0.0438    4.4519 C   0  0  0  0  0  0  0  0  0  0  0  0
   -0.7510   -0.5599    3.4160 C   0  0  0  0  0  0  0  0  0  0  0  0
    1.8551   -0.1955   -0.3529 C   0  0  0  0  0  0  0  0  0  0  0  0
    1.6745   -1.0511   -1.2384 O   0  0  0  0  0  0  0  0  0  0  0  0
    3.0364    0.5498   -0.3146 N   0  0  0  0  0  0  0  0  0  0  0  0
    4.1509    0.3883   -1.2862 C   0  0  1  0  0  0  0  0  0  0  0  0
    3.9954    1.5969   -2.2143 C   0  0  0  0  0  0  0  0  0  0  0  0
    5.0037    1.5974   -3.2682 C   0  0  0  0  0  0  0  0  0  0  0  0
    4.9789    2.6678   -4.1810 O   0  0  0  0  0  0  0  0  0  0  0  0
    5.8406    0.6905   -3.3461 O   0  0  0  0  0  0  0  0  0  0  0  0
    5.4112    0.3999   -0.5106 C   0  0  0  0  0  0  0  0  0  0  0  0
    5.4550    1.2918    0.4353 O   0  0  0  0  0  0  0  0  0  0  0  0
    6.5400   -0.4071   -0.6450 N   0  0  0  0  0  0  0  0  0  0  0  0
    7.7135   -0.2522    0.2586 C   0  0  1  0  0  0  0  0  0  0  0  0
    7.7166   -1.3403    1.2687 C   0  0  0  0  0  0  0  0  0  0  0  0
    8.7630   -1.3062    2.2897 C   0  0  0  0  0  0  0  0  0  0  0  0
    8.9576   -0.1347    3.0688 O   0  0  0  0  0  0  0  0  0  0  0  0
    9.5424   -2.2627    2.5522 O   0  0  0  0  0  0  0  0  0  0  0  0
    8.8909   -0.1695   -0.5729 C   0  0  0  0  0  0  0  0  0  0  0  0
    8.7140   -0.1153   -1.8607 O   0  0  0  0  0  0  0  0  0  0  0  0
   10.2364   -0.1385   -0.1879 N   0  0  0  0  0  0  0  0  0  0  0  0
   11.3001   -0.0193   -1.1959 C   0  0  1  0  0  0  0  0  0  0  0  0
   12.4260    0.7636   -0.6118 C   0  0  0  0  0  0  0  0  0  0  0  0
   11.9560    2.0924   -0.1929 C   0  0  0  0  0  0  0  0  0  0  0  0
   12.8055    2.9838    0.4176 O   0  0  0  0  0  0  0  0  0  0  0  0
   10.7468    2.4375   -0.3900 O   0  0  0  0  0  0  0  0  0  0  0  0
   11.7917   -1.3946   -1.5591 C   0  0  0  0  0  0  0  0  0  0  0  0
   12.7918   -1.5907   -2.4925 O   0  0  0  0  0  0  0  0  0  0  0  0
   11.2852   -2.3851   -1.0033 O   0  0  0  0  0  0  0  0  0  0  0  0
  -11.3391    0.0305   -2.3266 H   0  0  0  0  0  0  0  0  0  0  0  0
  -12.3241   -1.4456   -2.0237 H   0  0  0  0  0  0  0  0  0  0  0  0
  -11.5658   -1.1792   -3.5946 H   0  0  0  0  0  0  0  0  0  0  0  0
   -9.2948   -1.1910   -2.3171 H   0  0  0  0  0  0  0  0  0  0  0  0
   -8.9883   -3.0722   -3.4831 H   0  0  0  0  0  0  0  0  0  0  0  0
  -10.4205   -3.9593   -2.7263 H   0  0  0  0  0  0  0  0  0  0  0  0
  -10.6464   -2.7353   -4.0039 H   0  0  0  0  0  0  0  0  0  0  0  0
  -10.9626   -3.0278   -0.5326 H   0  0  0  0  0  0  0  0  0  0  0  0
   -9.1729   -2.9408   -0.6457 H   0  0  0  0  0  0  0  0  0  0  0  0
  -10.0814   -1.7047    1.2885 H   0  0  0  0  0  0  0  0  0  0  0  0
  -11.3001    0.3992    0.7168 H   0  0  0  0  0  0  0  0  0  0  0  0
  -12.1601   -1.0791    0.4939 H   0  0  0  0  0  0  0  0  0  0  0  0
   -7.4624   -1.5661    1.0414 H   0  0  0  0  0  0  0  0  0  0  0  0
   -6.7083    0.7527   -0.6260 H   0  0  0  0  0  0  0  0  0  0  0  0
   -7.6262    1.6839    1.3266 H   0  0  0  0  0  0  0  0  0  0  0  0
   -6.6637    0.6435    2.3997 H   0  0  0  0  0  0  0  0  0  0  0  0
   -6.5124    3.4936    0.1195 H   0  0  0  0  0  0  0  0  0  0  0  0
   -4.7729    5.2918    0.1814 H   0  0  0  0  0  0  0  0  0  0  0  0
   -2.8067    5.0305    1.6376 H   0  0  0  0  0  0  0  0  0  0  0  0
   -2.5748    3.0497    2.9746 H   0  0  0  0  0  0  0  0  0  0  0  0
   -4.3189    1.2408    2.9078 H   0  0  0  0  0  0  0  0  0  0  0  0
   -3.9349    0.8114   -0.5525 H   0  0  0  0  0  0  0  0  0  0  0  0
   -3.0213   -1.6876    0.8056 H   0  0  0  0  0  0  0  0  0  0  0  0
   -1.9788   -2.5883   -1.2212 H   0  0  0  0  0  0  0  0  0  0  0  0
   -3.7544   -2.4645   -1.2816 H   0  0  0  0  0  0  0  0  0  0  0  0
   -1.8296   -1.7068   -4.3030 H   0  0  0  0  0  0  0  0  0  0  0  0
   -0.2841   -1.8172    0.4762 H   0  0  0  0  0  0  0  0  0  0  0  0
    0.4658    1.0865    0.5579 H   0  0  0  0  0  0  0  0  0  0  0  0
    1.6672   -1.1780    2.2497 H   0  0  0  0  0  0  0  0  0  0  0  0
    2.3004    0.4631    2.1517 H   0  0  0  0  0  0  0  0  0  0  0  0
    0.2248    1.3740    3.2337 H   0  0  0  0  0  0  0  0  0  0  0  0
    2.1775    0.7570    4.4865 H   0  0  0  0  0  0  0  0  0  0  0  0
    0.6633    0.1115    5.3141 H   0  0  0  0  0  0  0  0  0  0  0  0
    1.6941   -1.0029    4.3565 H   0  0  0  0  0  0  0  0  0  0  0  0
   -0.8776   -0.8461    4.5145 H   0  0  0  0  0  0  0  0  0  0  0  0
   -0.8172   -1.4902    2.8740 H   0  0  0  0  0  0  0  0  0  0  0  0
   -1.7060    0.0173    3.2337 H   0  0  0  0  0  0  0  0  0  0  0  0
    3.1647    1.2712    0.4270 H   0  0  0  0  0  0  0  0  0  0  0  0
    4.0470   -0.5023   -1.8902 H   0  0  0  0  0  0  0  0  0  0  0  0
    3.0052    1.4010   -2.7349 H   0  0  0  0  0  0  0  0  0  0  0  0
    3.9534    2.5375   -1.6111 H   0  0  0  0  0  0  0  0  0  0  0  0
    4.6207    2.4401   -5.1244 H   0  0  0  0  0  0  0  0  0  0  0  0
    6.6015   -1.1440   -1.3601 H   0  0  0  0  0  0  0  0  0  0  0  0
    7.5835    0.7045    0.8426 H   0  0  0  0  0  0  0  0  0  0  0  0
    6.7363   -1.4573    1.7915 H   0  0  0  0  0  0  0  0  0  0  0  0
    7.8516   -2.3424    0.7389 H   0  0  0  0  0  0  0  0  0  0  0  0
    9.8667    0.3617    3.0441 H   0  0  0  0  0  0  0  0  0  0  0  0
   10.5496   -0.1971    0.7828 H   0  0  0  0  0  0  0  0  0  0  0  0
   10.9575    0.4097   -2.1422 H   0  0  0  0  0  0  0  0  0  0  0  0
   12.8884    0.2058    0.2184 H   0  0  0  0  0  0  0  0  0  0  0  0
   13.2275    0.8785   -1.3872 H   0  0  0  0  0  0  0  0  0  0  0  0
   13.6815    2.6906    0.7924 H   0  0  0  0  0  0  0  0  0  0  0  0
   12.6661   -1.2783   -3.4568 H   0  0  0  0  0  0  0  0  0  0  0  0
  1  2  1  0
  2  3  1  0
  2  4  1  0
  4  5  1  0
  5  6  1  0
  5  7  1  0
  7  8  2  0
  7  9  1  0
  9 10  1  0
 10 11  1  0
 11 12  1  0
 12 13  2  0
 13 14  1  0
 14 15  2  0
 15 16  1  0
 16 17  2  0
 10 18  1  0
 18 19  2  0
 18 20  1  0
 20 21  1  0
 21 22  1  0
 22 23  1  0
 23 24  1  0
 23 25  2  0
 21 26  1  0
 26 27  2  0
 26 28  1  0
 28 29  1  0
 29 30  1  0
 30 31  1  0
 31 32  1  0
 31 33  1  0
 29 34  1  0
 34 35  2  0
 34 36  1  0
 36 37  1  0
 37 38  1  0
 38 39  1  0
 39 40  1  0
 39 41  2  0
 37 42  1  0
 42 43  2  0
 42 44  1  0
 44 45  1  0
 45 46  1  0
 46 47  1  0
 47 48  1  0
 47 49  2  0
 45 50  1  0
 50 51  2  0
 50 52  1  0
 52 53  1  0
 53 54  1  0
 54 55  1  0
 55 56  1  0
 55 57  2  0
 53 58  1  0
 58 59  1  0
 58 60  2  0
 17 12  1  0
  1 61  1  0
  1 62  1  0
  1 63  1  0
  2 64  1  0
  3 65  1  0
  3 66  1  0
  3 67  1  0
  4 68  1  0
  4 69  1  0
  5 70  1  1
  6 71  1  0
  6 72  1  0
  9 73  1  0
 10 74  1  6
 11 75  1  0
 11 76  1  0
 13 77  1  0
 14 78  1  0
 15 79  1  0
 16 80  1  0
 17 81  1  0
 20 82  1  0
 21 83  1  1
 22 84  1  0
 22 85  1  0
 24 86  1  0
 28 87  1  0
 29 88  1  1
 30 89  1  0
 30 90  1  0
 31 91  1  0
 32 92  1  0
 32 93  1  0
 32 94  1  0
 33 95  1  0
 33 96  1  0
 33 97  1  0
 36 98  1  0
 37 99  1  6
 38100  1  0
 38101  1  0
 40102  1  0
 44103  1  0
 45104  1  1
 46105  1  0
 46106  1  0
 48107  1  0
 52108  1  0
 53109  1  6
 54110  1  0
 54111  1  0
 56112  1  0
 59113  1  0
M  END
$$$$
[H]c1c([H])c([H])c(S(=O)(=O)N2C([H])([H])C([H])([H])C([H])([H])[C@@]2([H])c2c([H])c([H])c(N([H])C(=O)c3c([H])c([H])c(OC([H])([H])[H])c([H])c3[H])c([H])c2[H])c([H])c1[H]
     RDKit          3D

 55 58  0  0  0  0  0  0  0  0999 V2000
    9.5888    1.1431   -2.1460 C   0  0  0  0  0  0  0  0  0  0  0  0
    8.9383    0.3619   -1.1691 O   0  0  0  0  0  0  0  0  0  0  0  0
    7.5747    0.5251   -0.9764 C   0  0  0  0  0  0  0  0  0  0  0  0
    6.8284    1.4303   -1.7116 C   0  0  0  0  0  0  0  0  0  0  0  0
    5.4709    1.5789   -1.5051 C   0  0  0  0  0  0  0  0  0  0  0  0
    4.7947    0.8271   -0.5512 C   0  0  0  0  0  0  0  0  0  0  0  0
    5.5164   -0.0707    0.1829 C   0  0  0  0  0  0  0  0  0  0  0  0
    6.8955   -0.2146   -0.0341 C   0  0  0  0  0  0  0  0  0  0  0  0
    3.3356    1.0311   -0.3616 C   0  0  0  0  0  0  0  0  0  0  0  0
    2.8273    2.0697   -0.8548 O   0  0  0  0  0  0  0  0  0  0  0  0
    2.6000    0.0812    0.3418 N   0  0  0  0  0  0  0  0  0  0  0  0
    1.2088    0.1707    0.5746 C   0  0  0  0  0  0  0  0  0  0  0  0
    0.6995   -0.5328    1.6807 C   0  0  0  0  0  0  0  0  0  0  0  0
   -0.6423   -0.5101    1.9533 C   0  0  0  0  0  0  0  0  0  0  0  0
   -1.5354    0.1857    1.1765 C   0  0  0  0  0  0  0  0  0  0  0  0
   -1.0201    0.8665    0.1003 C   0  0  0  0  0  0  0  0  0  0  0  0
    0.3429    0.8644   -0.2069 C   0  0  0  0  0  0  0  0  0  0  0  0
   -2.9708    0.2290    1.4554 C   0  0  2  0  0  0  0  0  0  0  0  0
   -3.2818    1.0732    2.6912 C   0  0  0  0  0  0  0  0  0  0  0  0
   -4.7048    0.6590    2.9798 C   0  0  0  0  0  0  0  0  0  0  0  0
   -4.8540   -0.6880    2.2924 C   0  0  0  0  0  0  0  0  0  0  0  0
   -3.5354   -1.0366    1.8130 N   0  0  0  0  0  0  0  0  0  0  0  0
   -3.5519   -2.1729    0.5528 S   0  0  0  0  0  0  0  0  0  0  0  0
   -4.2148   -3.4352    1.0884 O   0  0  0  0  0  0  0  0  0  0  0  0
   -2.1662   -2.5066    0.0805 O   0  0  0  0  0  0  0  0  0  0  0  0
   -4.5245   -1.6037   -0.7772 C   0  0  0  0  0  0  0  0  0  0  0  0
   -4.0137   -0.8664   -1.8223 C   0  0  0  0  0  0  0  0  0  0  0  0
   -4.8369   -0.4357   -2.8700 C   0  0  0  0  0  0  0  0  0  0  0  0
   -6.1819   -0.7323   -2.8939 C   0  0  0  0  0  0  0  0  0  0  0  0
   -6.6923   -1.4704   -1.8479 C   0  0  0  0  0  0  0  0  0  0  0  0
   -5.8796   -1.8933   -0.8174 C   0  0  0  0  0  0  0  0  0  0  0  0
    9.3386    2.2224   -2.0949 H   0  0  0  0  0  0  0  0  0  0  0  0
    9.3729    0.7906   -3.1894 H   0  0  0  0  0  0  0  0  0  0  0  0
   10.7091    1.1148   -1.9977 H   0  0  0  0  0  0  0  0  0  0  0  0
    7.3513    2.0258   -2.4646 H   0  0  0  0  0  0  0  0  0  0  0  0
    4.8907    2.2936   -2.0878 H   0  0  0  0  0  0  0  0  0  0  0  0
    5.0322   -0.6760    0.9416 H   0  0  0  0  0  0  0  0  0  0  0  0
    7.4525   -0.9369    0.5627 H   0  0  0  0  0  0  0  0  0  0  0  0
    3.0811   -0.7952    0.7414 H   0  0  0  0  0  0  0  0  0  0  0  0
    1.4038   -1.0957    2.3153 H   0  0  0  0  0  0  0  0  0  0  0  0
   -0.9798   -1.0779    2.8293 H   0  0  0  0  0  0  0  0  0  0  0  0
   -1.6566    1.4375   -0.5593 H   0  0  0  0  0  0  0  0  0  0  0  0
    0.6703    1.4185   -1.0918 H   0  0  0  0  0  0  0  0  0  0  0  0
   -3.5164    0.6777    0.6108 H   0  0  0  0  0  0  0  0  0  0  0  0
   -2.6592    0.6738    3.5269 H   0  0  0  0  0  0  0  0  0  0  0  0
   -3.1544    2.1419    2.5216 H   0  0  0  0  0  0  0  0  0  0  0  0
   -5.3728    1.4178    2.4982 H   0  0  0  0  0  0  0  0  0  0  0  0
   -4.8976    0.5679    4.0679 H   0  0  0  0  0  0  0  0  0  0  0  0
   -5.2581   -1.4549    2.9871 H   0  0  0  0  0  0  0  0  0  0  0  0
   -5.5826   -0.6041    1.4777 H   0  0  0  0  0  0  0  0  0  0  0  0
   -2.9764   -0.6368   -1.8119 H   0  0  0  0  0  0  0  0  0  0  0  0
   -4.4151    0.1405   -3.6774 H   0  0  0  0  0  0  0  0  0  0  0  0
   -6.7712   -0.3748   -3.7272 H   0  0  0  0  0  0  0  0  0  0  0  0
   -7.7482   -1.7213   -1.8368 H   0  0  0  0  0  0  0  0  0  0  0  0
   -6.3289   -2.4767   -0.0086 H   0  0  0  0  0  0  0  0  0  0  0  0
  1  2  1  0
  2  3  1  0
  3  4  2  0
  4  5  1  0
  5  6  2  0
  6  7  1  0
  7  8  2  0
  6  9  1  0
  9 10  2  0
  9 11  1  0
 11 12  1  0
 12 13  2  0
 13 14  1  0
 14 15  2  0
 15 16  1  0
 16 17  2  0
 15 18  1  0
 18 19  1  0
 19 20  1  0
 20 21  1  0
 21 22  1  0
 22 23  1  0
 23 24  2  0
 23 25  2  0
 23 26  1  0
 26 27  2  0
 27 28  1  0
 28 29  2  0
 29 30  1  0
 30 31  2  0
  8  3  1  0
 17 12  1  0
 22 18  1  0
 31 26  1  0
  1 32  1  0
  1 33  1  0
  1 34  1  0
  4 35  1  0
  5 36  1  0
  7 37  1  0
  8 38  1  0
 11 39  1  0
 13 40  1  0
 14 41  1  0
 16 42  1  0
 17 43  1  0
 18 44  1  6
 19 45  1  0
 19 46  1  0
 20 47  1  0
 20 48  1  0
 21 49  1  0
 21 50  1  0
 27 51  1  0
 28 52  1  0
 29 53  1  0
 30 54  1  0
 31 55  1  0
M  END
$$$$
[H]C([H])=C([H])C(=O)N1C([H])([H])C([H])([H])N(c2c([H])c([H])c(N([H])c3nc([H])c(Cl)c(N([H])c4c([H])c([H])c([H])c([H])c4S(=O)(=O)C([H])(C([H])([H])[H])C([H])([H])[H])n3)c(OC([H])([H])[H])c2[H])C([H])([H])C1([H])[H]
     RDKit          3D

 70 73  0  0  0  0  0  0  0  0999 V2000
    3.4638   -4.9536    2.0299 C   0  0  0  0  0  0  0  0  0  0  0  0
    2.3608   -4.4925    1.3016 O   0  0  0  0  0  0  0  0  0  0  0  0
    2.0303   -3.1571    1.2168 C   0  0  0  0  0  0  0  0  0  0  0  0
    2.8394   -2.2648    1.8896 C   0  0  0  0  0  0  0  0  0  0  0  0
    2.5956   -0.9093    1.8674 C   0  0  0  0  0  0  0  0  0  0  0  0
    1.5176   -0.4545    1.1551 C   0  0  0  0  0  0  0  0  0  0  0  0
    0.7108   -1.3816    0.4798 C   0  0  0  0  0  0  0  0  0  0  0  0
    0.9230   -2.7177    0.4823 C   0  0  0  0  0  0  0  0  0  0  0  0
    0.1751   -3.6737   -0.1837 N   0  0  0  0  0  0  0  0  0  0  0  0
   -1.0588   -3.5803   -0.8630 C   0  0  0  0  0  0  0  0  0  0  0  0
   -1.5606   -4.6911   -1.4999 N   0  0  0  0  0  0  0  0  0  0  0  0
   -2.7302   -4.6822   -2.1360 C   0  0  0  0  0  0  0  0  0  0  0  0
   -3.5037   -3.5541   -2.1892 C   0  0  0  0  0  0  0  0  0  0  0  0
   -5.0486   -3.5480   -3.0302 Cl  0  0  0  0  0  0  0  0  0  0  0  0
   -3.0199   -2.3995   -1.5458 C   0  0  0  0  0  0  0  0  0  0  0  0
   -3.8243   -1.2524   -1.6576 N   0  0  0  0  0  0  0  0  0  0  0  0
   -3.6838    0.0189   -1.0734 C   0  0  0  0  0  0  0  0  0  0  0  0
   -2.8883    0.2760    0.0219 C   0  0  0  0  0  0  0  0  0  0  0  0
   -2.8347    1.5400    0.5648 C   0  0  0  0  0  0  0  0  0  0  0  0
   -3.5716    2.5702    0.0295 C   0  0  0  0  0  0  0  0  0  0  0  0
   -4.3674    2.2956   -1.0684 C   0  0  0  0  0  0  0  0  0  0  0  0
   -4.4497    1.0590   -1.6381 C   0  0  0  0  0  0  0  0  0  0  0  0
   -5.5061    0.7826   -3.0049 S   0  0  0  0  0  0  0  0  0  0  0  0
   -6.7074   -0.0265   -2.6108 O   0  0  0  0  0  0  0  0  0  0  0  0
   -4.7833    0.1864   -4.1766 O   0  0  0  0  0  0  0  0  0  0  0  0
   -6.1736    2.3586   -3.5101 C   0  0  0  0  0  0  0  0  0  0  0  0
   -7.2746    2.1127   -4.5577 C   0  0  0  0  0  0  0  0  0  0  0  0
   -5.1526    3.2913   -4.0621 C   0  0  0  0  0  0  0  0  0  0  0  0
   -1.8314   -2.5078   -0.9332 N   0  0  0  0  0  0  0  0  0  0  0  0
    3.4730   -0.0603    2.5708 N   0  0  0  0  0  0  0  0  0  0  0  0
    4.7309   -0.6089    3.0983 C   0  0  0  0  0  0  0  0  0  0  0  0
    5.5203    0.5059    3.7547 C   0  0  0  0  0  0  0  0  0  0  0  0
    5.6187    1.6764    2.8550 N   0  0  0  0  0  0  0  0  0  0  0  0
    4.3729    2.1553    2.3132 C   0  0  0  0  0  0  0  0  0  0  0  0
    3.1865    1.3158    2.8007 C   0  0  0  0  0  0  0  0  0  0  0  0
    6.8712    2.2467    2.5860 C   0  0  0  0  0  0  0  0  0  0  0  0
    7.8595    1.6495    3.1857 O   0  0  0  0  0  0  0  0  0  0  0  0
    7.1828    3.3508    1.7738 C   0  0  0  0  0  0  0  0  0  0  0  0
    6.4446    4.1414    1.0589 C   0  0  0  0  0  0  0  0  0  0  0  0
    3.4166   -4.6600    3.0966 H   0  0  0  0  0  0  0  0  0  0  0  0
    4.4207   -4.5995    1.5897 H   0  0  0  0  0  0  0  0  0  0  0  0
    3.4746   -6.0581    1.9996 H   0  0  0  0  0  0  0  0  0  0  0  0
    3.7069   -2.6280    2.4658 H   0  0  0  0  0  0  0  0  0  0  0  0
    1.2949    0.5969    1.1103 H   0  0  0  0  0  0  0  0  0  0  0  0
   -0.0949   -0.9562   -0.0749 H   0  0  0  0  0  0  0  0  0  0  0  0
    0.5887   -4.6950   -0.2114 H   0  0  0  0  0  0  0  0  0  0  0  0
   -3.1283   -5.5635   -2.6422 H   0  0  0  0  0  0  0  0  0  0  0  0
   -4.6991   -1.3502   -2.2831 H   0  0  0  0  0  0  0  0  0  0  0  0
   -2.3096   -0.5440    0.4798 H   0  0  0  0  0  0  0  0  0  0  0  0
   -2.1941    1.7113    1.4288 H   0  0  0  0  0  0  0  0  0  0  0  0
   -3.5225    3.5685    0.4674 H   0  0  0  0  0  0  0  0  0  0  0  0
   -4.9623    3.1319   -1.4821 H   0  0  0  0  0  0  0  0  0  0  0  0
   -6.6623    2.8066   -2.6320 H   0  0  0  0  0  0  0  0  0  0  0  0
   -8.0853    2.8308   -4.3272 H   0  0  0  0  0  0  0  0  0  0  0  0
   -6.8128    2.3501   -5.5625 H   0  0  0  0  0  0  0  0  0  0  0  0
   -7.5904    1.0541   -4.5015 H   0  0  0  0  0  0  0  0  0  0  0  0
   -5.3566    3.4234   -5.1452 H   0  0  0  0  0  0  0  0  0  0  0  0
   -4.1187    2.8842   -3.9974 H   0  0  0  0  0  0  0  0  0  0  0  0
   -5.2017    4.3273   -3.6404 H   0  0  0  0  0  0  0  0  0  0  0  0
    5.3136   -0.9914    2.2486 H   0  0  0  0  0  0  0  0  0  0  0  0
    4.5016   -1.3689    3.8483 H   0  0  0  0  0  0  0  0  0  0  0  0
    5.0278    0.8032    4.6983 H   0  0  0  0  0  0  0  0  0  0  0  0
    6.5468    0.1645    3.9828 H   0  0  0  0  0  0  0  0  0  0  0  0
    4.3723    2.0800    1.1967 H   0  0  0  0  0  0  0  0  0  0  0  0
    4.1388    3.1906    2.6256 H   0  0  0  0  0  0  0  0  0  0  0  0
    3.0786    1.4805    3.9033 H   0  0  0  0  0  0  0  0  0  0  0  0
    2.3060    1.7145    2.3341 H   0  0  0  0  0  0  0  0  0  0  0  0
    8.2935    3.6018    1.7330 H   0  0  0  0  0  0  0  0  0  0  0  0
    6.9559    4.9595    0.4946 H   0  0  0  0  0  0  0  0  0  0  0  0
    5.3948    4.1178    0.9318 H   0  0  0  0  0  0  0  0  0  0  0  0
  1  2  1  0
  2  3  1  0
  3  4  2  0
  4  5  1  0
  5  6  2  0
  6  7  1  0
  7  8  2  0
  8  9  1  0
  9 10  1  0
 10 11  2  0
 11 12  1  0
 12 13  2  0
 13 14  1  0
 13 15  1  0
 15 16  1  0
 16 17  1  0
 17 18  2  0
 18 19  1  0
 19 20  2  0
 20 21  1  0
 21 22  2  0
 22 23  1  0
 23 24  2  0
 23 25  2  0
 23 26  1  0
 26 27  1  0
 26 28  1  0
 15 29  2  0
  5 30  1  0
 30 31  1  0
 31 32  1  0
 32 33  1  0
 33 34  1  0
 34 35  1  0
 33 36  1  0
 36 37  2  0
 36 38  1  0
 38 39  2  3
  8  3  1  0
 29 10  1  0
 35 30  1  0
 22 17  1  0
  1 40  1  0
  1 41  1  0
  1 42  1  0
  4 43  1  0
  6 44  1  0
  7 45  1  0
  9 46  1  0
 12 47  1  0
 16 48  1  0
 18 49  1  0
 19 50  1  0
 20 51  1  0
 21 52  1  0
 26 53  1  0
 27 54  1  0
 27 55  1  0
 27 56  1  0
 28 57  1  0
 28 58  1  0
 28 59  1  0
 31 60  1  0
 31 61  1  0
 32 62  1  0
 32 63  1  0
 34 64  1  0
 34 65  1  0
 35 66  1  0
 35 67  1  0
 38 68  1  0
 39 69  1  0
 39 70  1  0
M  END
$$$$
[H]OC(=O)C([H])([H])[C@@]([H])(C(=O)N([H])[C@]([H])(C(=O)N([H])[H])C([H])([H])c1c([H])c([H])c([H])c([H])c1[H])N([H])C(=O)[C@@]([H])(N([H])C(=O)[C@@]([H])(N([H])C(=O)[C@@]([H])(N([H])C(=O)OC([H])([H])c1c([H])c([H])c([H])c([H])c1[H])C([H])([H])c1c([H])c([H])c([H])c([H])c1[H])[C@@]([H])(C([H])([H])[H])C([H])([H])C([H])([H])[H])C([H])([H])c1c([H])c([H])c([H])c([H])c1[H]
     RDKit          3D

112115  0  0  0  0  0  0  0  0999 V2000
    1.7665   -1.3846   -3.3070 C   0  0  0  0  0  0  0  0  0  0  0  0
    2.1370   -0.8476   -1.9064 C   0  0  0  0  0  0  0  0  0  0  0  0
    2.0935    0.6367   -1.9966 C   0  0  2  0  0  0  0  0  0  0  0  0
    3.0965    1.1507   -3.0390 C   0  0  0  0  0  0  0  0  0  0  0  0
    2.1458    1.4021   -0.7326 C   0  0  2  0  0  0  0  0  0  0  0  0
    3.3044    1.2409    0.0904 N   0  0  0  0  0  0  0  0  0  0  0  0
    3.6566    0.1875    0.9463 C   0  0  0  0  0  0  0  0  0  0  0  0
    2.9993   -0.8767    1.1328 O   0  0  0  0  0  0  0  0  0  0  0  0
    4.9221    0.2425    1.7740 C   0  0  2  0  0  0  0  0  0  0  0  0
    5.8505    1.2359    1.1843 C   0  0  0  0  0  0  0  0  0  0  0  0
    7.1431    1.3297    1.9211 C   0  0  0  0  0  0  0  0  0  0  0  0
    8.2010    0.5714    1.4864 C   0  0  0  0  0  0  0  0  0  0  0  0
    9.4337    0.6046    2.1220 C   0  0  0  0  0  0  0  0  0  0  0  0
    9.5797    1.4162    3.2047 C   0  0  0  0  0  0  0  0  0  0  0  0
    8.5233    2.1947    3.6666 C   0  0  0  0  0  0  0  0  0  0  0  0
    7.2815    2.1459    3.0056 C   0  0  0  0  0  0  0  0  0  0  0  0
    5.4773   -1.0229    2.0763 N   0  0  0  0  0  0  0  0  0  0  0  0
    5.6990   -2.0230    1.1055 C   0  0  0  0  0  0  0  0  0  0  0  0
    5.4028   -1.8125   -0.0937 O   0  0  0  0  0  0  0  0  0  0  0  0
    6.2444   -3.2306    1.4764 O   0  0  0  0  0  0  0  0  0  0  0  0
    6.5013   -4.2370    0.5355 C   0  0  0  0  0  0  0  0  0  0  0  0
    7.4794   -3.7050   -0.4384 C   0  0  0  0  0  0  0  0  0  0  0  0
    7.1577   -3.6446   -1.7684 C   0  0  0  0  0  0  0  0  0  0  0  0
    8.0760   -3.1375   -2.6887 C   0  0  0  0  0  0  0  0  0  0  0  0
    9.3077   -2.7013   -2.2301 C   0  0  0  0  0  0  0  0  0  0  0  0
    9.6463   -2.7548   -0.9034 C   0  0  0  0  0  0  0  0  0  0  0  0
    8.7035   -3.2682   -0.0042 C   0  0  0  0  0  0  0  0  0  0  0  0
    0.8807    1.3077    0.0480 C   0  0  0  0  0  0  0  0  0  0  0  0
    0.8332    0.9143    1.2265 O   0  0  0  0  0  0  0  0  0  0  0  0
   -0.3359    1.6904   -0.5656 N   0  0  0  0  0  0  0  0  0  0  0  0
   -1.6095    1.6489    0.0813 C   0  0  1  0  0  0  0  0  0  0  0  0
   -2.0392    3.0193    0.6002 C   0  0  0  0  0  0  0  0  0  0  0  0
   -1.1197    3.6021    1.5785 C   0  0  0  0  0  0  0  0  0  0  0  0
   -1.2960    3.3333    2.9264 C   0  0  0  0  0  0  0  0  0  0  0  0
   -0.4435    3.8830    3.8568 C   0  0  0  0  0  0  0  0  0  0  0  0
    0.5936    4.7086    3.4266 C   0  0  0  0  0  0  0  0  0  0  0  0
    0.7936    4.9924    2.0944 C   0  0  0  0  0  0  0  0  0  0  0  0
   -0.0739    4.4304    1.1800 C   0  0  0  0  0  0  0  0  0  0  0  0
   -2.6582    1.1867   -0.8953 C   0  0  0  0  0  0  0  0  0  0  0  0
   -2.2329    0.8795   -2.0339 O   0  0  0  0  0  0  0  0  0  0  0  0
   -3.9987    1.1149   -0.5460 N   0  0  0  0  0  0  0  0  0  0  0  0
   -5.1935    0.7662   -1.2409 C   0  0  1  0  0  0  0  0  0  0  0  0
   -5.0518    0.5453   -2.7330 C   0  0  0  0  0  0  0  0  0  0  0  0
   -4.6492    1.7952   -3.4302 C   0  0  0  0  0  0  0  0  0  0  0  0
   -4.2657    1.8581   -4.7562 O   0  0  0  0  0  0  0  0  0  0  0  0
   -4.6411    2.9104   -2.8025 O   0  0  0  0  0  0  0  0  0  0  0  0
   -6.0812   -0.1619   -0.5663 C   0  0  0  0  0  0  0  0  0  0  0  0
   -5.7798   -0.6619    0.5687 O   0  0  0  0  0  0  0  0  0  0  0  0
   -7.3150   -0.5487   -1.1365 N   0  0  0  0  0  0  0  0  0  0  0  0
   -8.2237   -1.4866   -0.4487 C   0  0  1  0  0  0  0  0  0  0  0  0
   -9.4109   -0.6946   -0.0184 C   0  0  0  0  0  0  0  0  0  0  0  0
  -10.4136   -1.4933    0.6888 C   0  0  0  0  0  0  0  0  0  0  0  0
  -10.2301   -1.6986    2.0537 C   0  0  0  0  0  0  0  0  0  0  0  0
  -11.1176   -2.4022    2.8098 C   0  0  0  0  0  0  0  0  0  0  0  0
  -12.2556   -2.9441    2.2218 C   0  0  0  0  0  0  0  0  0  0  0  0
  -12.4323   -2.7377    0.8702 C   0  0  0  0  0  0  0  0  0  0  0  0
  -11.5527   -2.0354    0.0933 C   0  0  0  0  0  0  0  0  0  0  0  0
   -8.5108   -2.5981   -1.3477 C   0  0  0  0  0  0  0  0  0  0  0  0
   -9.2576   -3.7626   -1.0715 N   0  0  0  0  0  0  0  0  0  0  0  0
   -8.0365   -2.5387   -2.5429 O   0  0  0  0  0  0  0  0  0  0  0  0
    1.2074   -2.3399   -3.2401 H   0  0  0  0  0  0  0  0  0  0  0  0
    1.1929   -0.5985   -3.8743 H   0  0  0  0  0  0  0  0  0  0  0  0
    2.6819   -1.5784   -3.8938 H   0  0  0  0  0  0  0  0  0  0  0  0
    3.1139   -1.2980   -1.7028 H   0  0  0  0  0  0  0  0  0  0  0  0
    1.3386   -1.1810   -1.2299 H   0  0  0  0  0  0  0  0  0  0  0  0
    1.0924    0.8826   -2.4701 H   0  0  0  0  0  0  0  0  0  0  0  0
    3.2618    0.4031   -3.8210 H   0  0  0  0  0  0  0  0  0  0  0  0
    4.0222    1.4111   -2.4871 H   0  0  0  0  0  0  0  0  0  0  0  0
    2.7155    2.0894   -3.4838 H   0  0  0  0  0  0  0  0  0  0  0  0
    2.1366    2.5038   -1.0581 H   0  0  0  0  0  0  0  0  0  0  0  0
    4.0403    2.0353    0.0539 H   0  0  0  0  0  0  0  0  0  0  0  0
    4.5602    0.7433    2.7687 H   0  0  0  0  0  0  0  0  0  0  0  0
    5.4190    2.2761    1.2691 H   0  0  0  0  0  0  0  0  0  0  0  0
    5.9999    1.0150    0.1136 H   0  0  0  0  0  0  0  0  0  0  0  0
    8.1281   -0.0832    0.6366 H   0  0  0  0  0  0  0  0  0  0  0  0
   10.2587    0.0004    1.7616 H   0  0  0  0  0  0  0  0  0  0  0  0
   10.5328    1.4689    3.7271 H   0  0  0  0  0  0  0  0  0  0  0  0
    8.6566    2.8265    4.5162 H   0  0  0  0  0  0  0  0  0  0  0  0
    6.4406    2.7378    3.3427 H   0  0  0  0  0  0  0  0  0  0  0  0
    5.7399   -1.2087    3.0953 H   0  0  0  0  0  0  0  0  0  0  0  0
    6.9513   -5.1475    1.0303 H   0  0  0  0  0  0  0  0  0  0  0  0
    5.5718   -4.6040    0.0460 H   0  0  0  0  0  0  0  0  0  0  0  0
    6.2098   -3.9727   -2.1779 H   0  0  0  0  0  0  0  0  0  0  0  0
    7.8058   -3.0994   -3.7217 H   0  0  0  0  0  0  0  0  0  0  0  0
   10.0206   -2.3007   -2.9727 H   0  0  0  0  0  0  0  0  0  0  0  0
   10.6025   -2.4214   -0.5240 H   0  0  0  0  0  0  0  0  0  0  0  0
    8.9677   -3.3119    1.0549 H   0  0  0  0  0  0  0  0  0  0  0  0
   -0.2742    2.0307   -1.5749 H   0  0  0  0  0  0  0  0  0  0  0  0
   -1.5825    0.9199    0.9048 H   0  0  0  0  0  0  0  0  0  0  0  0
   -3.0164    2.8724    1.1449 H   0  0  0  0  0  0  0  0  0  0  0  0
   -2.3184    3.7121   -0.2279 H   0  0  0  0  0  0  0  0  0  0  0  0
   -2.0965    2.6988    3.2102 H   0  0  0  0  0  0  0  0  0  0  0  0
   -0.5926    3.6667    4.9142 H   0  0  0  0  0  0  0  0  0  0  0  0
    1.2341    5.1157    4.2029 H   0  0  0  0  0  0  0  0  0  0  0  0
    1.6182    5.6377    1.8411 H   0  0  0  0  0  0  0  0  0  0  0  0
    0.0689    4.6487    0.1123 H   0  0  0  0  0  0  0  0  0  0  0  0
   -4.2254    1.3857    0.4993 H   0  0  0  0  0  0  0  0  0  0  0  0
   -5.7656    1.8030   -1.2679 H   0  0  0  0  0  0  0  0  0  0  0  0
   -4.2568   -0.2016   -2.8919 H   0  0  0  0  0  0  0  0  0  0  0  0
   -6.0142    0.2461   -3.1949 H   0  0  0  0  0  0  0  0  0  0  0  0
   -4.6118    2.5315   -5.4263 H   0  0  0  0  0  0  0  0  0  0  0  0
   -7.6153   -0.1870   -2.0442 H   0  0  0  0  0  0  0  0  0  0  0  0
   -7.6640   -1.8160    0.4713 H   0  0  0  0  0  0  0  0  0  0  0  0
   -9.9053   -0.3088   -0.9535 H   0  0  0  0  0  0  0  0  0  0  0  0
   -9.0819    0.1834    0.5884 H   0  0  0  0  0  0  0  0  0  0  0  0
   -9.3574   -1.2901    2.5490 H   0  0  0  0  0  0  0  0  0  0  0  0
  -10.9396   -2.5451    3.8831 H   0  0  0  0  0  0  0  0  0  0  0  0
  -12.9196   -3.4883    2.8507 H   0  0  0  0  0  0  0  0  0  0  0  0
  -13.3196   -3.1560    0.3964 H   0  0  0  0  0  0  0  0  0  0  0  0
  -11.6714   -1.8661   -0.9609 H   0  0  0  0  0  0  0  0  0  0  0  0
   -9.9932   -4.0623   -1.7337 H   0  0  0  0  0  0  0  0  0  0  0  0
   -9.0733   -4.3135   -0.2236 H   0  0  0  0  0  0  0  0  0  0  0  0
  1  2  1  0
  2  3  1  0
  3  4  1  0
  3  5  1  0
  5  6  1  0
  6  7  1  0
  7  8  2  0
  7  9  1  0
  9 10  1  0
 10 11  1  0
 11 12  2  0
 12 13  1  0
 13 14  2  0
 14 15  1  0
 15 16  2  0
  9 17  1  0
 17 18  1  0
 18 19  2  0
 18 20  1  0
 20 21  1  0
 21 22  1  0
 22 23  2  0
 23 24  1  0
 24 25  2  0
 25 26  1  0
 26 27  2  0
  5 28  1  0
 28 29  2  0
 28 30  1  0
 30 31  1  0
 31 32  1  0
 32 33  1  0
 33 34  2  0
 34 35  1  0
 35 36  2  0
 36 37  1  0
 37 38  2  0
 31 39  1  0
 39 40  2  0
 39 41  1  0
 41 42  1  0
 42 43  1  0
 43 44  1  0
 44 45  1  0
 44 46  2  0
 42 47  1  0
 47 48  2  0
 47 49  1  0
 49 50  1  0
 50 51  1  0
 51 52  1  0
 52 53  2  0
 53 54  1  0
 54 55  2  0
 55 56  1  0
 56 57  2  0
 50 58  1  0
 58 59  1  0
 58 60  2  0
 16 11  1  0
 27 22  1  0
 38 33  1  0
 57 52  1  0
  1 61  1  0
  1 62  1  0
  1 63  1  0
  2 64  1  0
  2 65  1  0
  3 66  1  6
  4 67  1  0
  4 68  1  0
  4 69  1  0
  5 70  1  6
  6 71  1  0
  9 72  1  1
 10 73  1  0
 10 74  1  0
 12 75  1  0
 13 76  1  0
 14 77  1  0
 15 78  1  0
 16 79  1  0
 17 80  1  0
 21 81  1  0
 21 82  1  0
 23 83  1  0
 24 84  1  0
 25 85  1  0
 26 86  1  0
 27 87  1  0
 30 88  1  0
 31 89  1  1
 32 90  1  0
 32 91  1  0
 34 92  1  0
 35 93  1  0
 36 94  1  0
 37 95  1  0
 38 96  1  0
 41 97  1  0
 42 98  1  6
 43 99  1  0
 43100  1  0
 45101  1  0
 49102  1  0
 50103  1  1
 51104  1  0
 51105  1  0
 53106  1  0
 54107  1  0
 55108  1  0
 56109  1  0
 57110  1  0
 59111  1  0
 59112  1  0
M  END
$$$$
