[H]c1nc(N([H])c2c([H])c([H])c(OC([H])([H])c3nc([H])c([H])c([H])c3[H])c(Cl)c2[H])c2c([H])c(OC([H])([H])[H])c(OC([H])([H])[H])c([H])c2n1
     RDKit          3D

 49 52  0  0  0  0  0  0  0  0999 V2000
   -8.1539    2.2377   -0.1677 C   0  0  0  0  0  0  0  0  0  0  0  0
   -7.4213    1.0625    0.0429 O   0  0  0  0  0  0  0  0  0  0  0  0
   -6.0440    0.9704    0.0022 C   0  0  0  0  0  0  0  0  0  0  0  0
   -5.2203    2.0272   -0.2514 C   0  0  0  0  0  0  0  0  0  0  0  0
   -3.8433    1.9354   -0.2922 C   0  0  0  0  0  0  0  0  0  0  0  0
   -3.0673    3.0060   -0.5450 N   0  0  0  0  0  0  0  0  0  0  0  0
   -1.7290    2.9274   -0.5853 C   0  0  0  0  0  0  0  0  0  0  0  0
   -1.1624    1.7429   -0.3658 N   0  0  0  0  0  0  0  0  0  0  0  0
   -1.8773    0.6321   -0.1075 C   0  0  0  0  0  0  0  0  0  0  0  0
   -1.2402   -0.6063    0.0770 N   0  0  0  0  0  0  0  0  0  0  0  0
    0.1715   -0.7262    0.0878 C   0  0  0  0  0  0  0  0  0  0  0  0
    0.9643    0.2411    0.6215 C   0  0  0  0  0  0  0  0  0  0  0  0
    2.3648    0.0864    0.5782 C   0  0  0  0  0  0  0  0  0  0  0  0
    2.9736   -1.0012    0.0204 C   0  0  0  0  0  0  0  0  0  0  0  0
    4.3501   -1.1221   -0.0058 O   0  0  0  0  0  0  0  0  0  0  0  0
    5.1401   -0.1157    0.5473 C   0  0  0  0  0  0  0  0  0  0  0  0
    6.5812   -0.3680    0.4535 C   0  0  0  0  0  0  0  0  0  0  0  0
    7.2374    0.1029   -0.6866 C   0  0  0  0  0  0  0  0  0  0  0  0
    8.5740   -0.0642   -0.8989 C   0  0  0  0  0  0  0  0  0  0  0  0
    9.2989   -0.7346    0.0723 C   0  0  0  0  0  0  0  0  0  0  0  0
    8.6154   -1.1854    1.1855 C   0  0  0  0  0  0  0  0  0  0  0  0
    7.3093   -1.0109    1.3718 N   0  0  0  0  0  0  0  0  0  0  0  0
    2.1582   -1.9749   -0.5160 C   0  0  0  0  0  0  0  0  0  0  0  0
    2.9119   -3.3983   -1.2463 Cl  0  0  0  0  0  0  0  0  0  0  0  0
    0.7874   -1.8492   -0.4877 C   0  0  0  0  0  0  0  0  0  0  0  0
   -3.2748    0.6971   -0.0616 C   0  0  0  0  0  0  0  0  0  0  0  0
   -4.0735   -0.3859    0.1964 C   0  0  0  0  0  0  0  0  0  0  0  0
   -5.4744   -0.2523    0.2296 C   0  0  0  0  0  0  0  0  0  0  0  0
   -6.2144   -1.3961    0.4976 O   0  0  0  0  0  0  0  0  0  0  0  0
   -5.6190   -2.6507    0.7309 C   0  0  0  0  0  0  0  0  0  0  0  0
   -8.4149    2.4017   -1.2418 H   0  0  0  0  0  0  0  0  0  0  0  0
   -9.1455    2.1703    0.3656 H   0  0  0  0  0  0  0  0  0  0  0  0
   -7.6750    3.1501    0.1921 H   0  0  0  0  0  0  0  0  0  0  0  0
   -5.6367    3.0131   -0.4366 H   0  0  0  0  0  0  0  0  0  0  0  0
   -1.1098    3.8159   -0.7939 H   0  0  0  0  0  0  0  0  0  0  0  0
   -1.7942   -1.5139    0.2139 H   0  0  0  0  0  0  0  0  0  0  0  0
    0.6226    1.1466    1.1188 H   0  0  0  0  0  0  0  0  0  0  0  0
    2.9826    0.8593    1.0032 H   0  0  0  0  0  0  0  0  0  0  0  0
    4.8558    0.8467    0.1028 H   0  0  0  0  0  0  0  0  0  0  0  0
    4.8854   -0.0669    1.6455 H   0  0  0  0  0  0  0  0  0  0  0  0
    6.6739    0.6347   -1.4615 H   0  0  0  0  0  0  0  0  0  0  0  0
    9.0546    0.3068   -1.7828 H   0  0  0  0  0  0  0  0  0  0  0  0
   10.3633   -0.8830   -0.0680 H   0  0  0  0  0  0  0  0  0  0  0  0
    9.1916   -1.7051    1.9327 H   0  0  0  0  0  0  0  0  0  0  0  0
    0.1424   -2.6305   -0.9180 H   0  0  0  0  0  0  0  0  0  0  0  0
   -3.6396   -1.3618    0.3808 H   0  0  0  0  0  0  0  0  0  0  0  0
   -6.3376   -3.3905    1.1332 H   0  0  0  0  0  0  0  0  0  0  0  0
   -4.8123   -2.5826    1.5147 H   0  0  0  0  0  0  0  0  0  0  0  0
   -5.2296   -3.0382   -0.2312 H   0  0  0  0  0  0  0  0  0  0  0  0
  1  2  1  0
  2  3  1  0
  3  4  2  0
  4  5  1  0
  5  6  2  0
  6  7  1  0
  7  8  2  0
  8  9  1  0
  9 10  1  0
 10 11  1  0
 11 12  2  0
 12 13  1  0
 13 14  2  0
 14 15  1  0
 15 16  1  0
 16 17  1  0
 17 18  2  0
 18 19  1  0
 19 20  2  0
 20 21  1  0
 21 22  2  0
 14 23  1  0
 23 24  1  0
 23 25  2  0
  9 26  2  0
 26 27  1  0
 27 28  2  0
 28 29  1  0
 29 30  1  0
 28  3  1  0
 26  5  1  0
 25 11  1  0
 22 17  1  0
  1 31  1  0
  1 32  1  0
  1 33  1  0
  4 34  1  0
  7 35  1  0
 10 36  1  0
 12 37  1  0
 13 38  1  0
 16 39  1  0
 16 40  1  0
 18 41  1  0
 19 42  1  0
 20 43  1  0
 21 44  1  0
 25 45  1  0
 27 46  1  0
 30 47  1  0
 30 48  1  0
 30 49  1  0
M  END
$$$$
[H]N=C(N([H])[H])N([H])C([H])([H])C([H])([H])C([H])([H])[C@]1([H])N([H])C(=O)[C@]2([H])C([H])([H])C([H])([H])[C@]([H])(OC(=O)O[H])[C@@]2([H])OC([H])(c2noc(N([H])C([H])([H])C(N([H])[H])(C([H])([H])O[H])C([H])([H])O[H])n2)C1([H])[H]
     RDKit          3D

 70 72  0  0  0  0  0  0  0  0999 V2000
    7.1460    2.3561    0.1917 N   0  0  0  0  0  0  0  0  0  0  0  0
    5.8803    1.6617    0.5268 C   0  0  0  0  0  0  0  0  0  0  0  0
    4.7449    2.6128    0.4073 C   0  0  0  0  0  0  0  0  0  0  0  0
    4.9681    3.7108    1.2875 O   0  0  0  0  0  0  0  0  0  0  0  0
    6.0864    1.2019    1.9706 C   0  0  0  0  0  0  0  0  0  0  0  0
    4.9640    0.5312    2.4119 O   0  0  0  0  0  0  0  0  0  0  0  0
    5.7097    0.4738   -0.3699 C   0  0  0  0  0  0  0  0  0  0  0  0
    4.5166   -0.2672   -0.1411 N   0  0  0  0  0  0  0  0  0  0  0  0
    3.2282   -0.0098   -0.6700 C   0  0  0  0  0  0  0  0  0  0  0  0
    2.0889   -0.7140   -0.3884 N   0  0  0  0  0  0  0  0  0  0  0  0
    1.0442   -0.2117   -1.0587 C   0  0  0  0  0  0  0  0  0  0  0  0
    1.5579    0.8159   -1.7599 N   0  0  0  0  0  0  0  0  0  0  0  0
    2.8290    0.9158   -1.5195 O   0  0  0  0  0  0  0  0  0  0  0  0
   -0.3792   -0.6649   -1.0517 C   0  0  0  0  0  0  0  0  0  0  0  0
   -0.3187   -2.0738   -1.1616 O   0  0  0  0  0  0  0  0  0  0  0  0
   -1.3929   -2.6903   -0.5592 C   0  0  1  0  0  0  0  0  0  0  0  0
   -2.1786   -3.3873   -1.6743 C   0  0  1  0  0  0  0  0  0  0  0  0
   -2.7486   -4.6336   -1.0438 C   0  0  0  0  0  0  0  0  0  0  0  0
   -1.9321   -4.9192    0.1728 C   0  0  0  0  0  0  0  0  0  0  0  0
   -0.9905   -3.7772    0.4004 C   0  0  2  0  0  0  0  0  0  0  0  0
   -1.0656   -3.2764    1.7281 O   0  0  0  0  0  0  0  0  0  0  0  0
    0.0437   -3.1499    2.5407 C   0  0  0  0  0  0  0  0  0  0  0  0
   -0.0110   -2.6607    3.8452 O   0  0  0  0  0  0  0  0  0  0  0  0
    1.1796   -3.4840    2.1144 O   0  0  0  0  0  0  0  0  0  0  0  0
   -3.2246   -2.4556   -2.1175 C   0  0  0  0  0  0  0  0  0  0  0  0
   -4.2796   -3.0382   -2.4315 O   0  0  0  0  0  0  0  0  0  0  0  0
   -3.3125   -1.0603   -2.2699 N   0  0  0  0  0  0  0  0  0  0  0  0
   -2.5206    0.1256   -2.1343 C   0  0  1  0  0  0  0  0  0  0  0  0
   -2.9037    0.9126   -0.8960 C   0  0  0  0  0  0  0  0  0  0  0  0
   -4.3603    1.3197   -0.9845 C   0  0  0  0  0  0  0  0  0  0  0  0
   -4.7732    2.0959    0.2225 C   0  0  0  0  0  0  0  0  0  0  0  0
   -3.9839    3.2961    0.3407 N   0  0  0  0  0  0  0  0  0  0  0  0
   -4.2504    4.1379    1.4451 C   0  0  0  0  0  0  0  0  0  0  0  0
   -4.5469    3.5728    2.6971 N   0  0  0  0  0  0  0  0  0  0  0  0
   -4.2189    5.4045    1.2937 N   0  0  0  0  0  0  0  0  0  0  0  0
   -1.0501   -0.0759   -2.2434 C   0  0  0  0  0  0  0  0  0  0  0  0
    7.9255    1.6721    0.2189 H   0  0  0  0  0  0  0  0  0  0  0  0
    7.0775    2.7628   -0.7725 H   0  0  0  0  0  0  0  0  0  0  0  0
    4.6079    2.9609   -0.6137 H   0  0  0  0  0  0  0  0  0  0  0  0
    3.8088    2.1277    0.8023 H   0  0  0  0  0  0  0  0  0  0  0  0
    5.9444    3.7514    1.4920 H   0  0  0  0  0  0  0  0  0  0  0  0
    6.2763    2.0682    2.6352 H   0  0  0  0  0  0  0  0  0  0  0  0
    6.9449    0.5311    2.0635 H   0  0  0  0  0  0  0  0  0  0  0  0
    4.5106    0.9638    3.1787 H   0  0  0  0  0  0  0  0  0  0  0  0
    6.6338   -0.1667   -0.1906 H   0  0  0  0  0  0  0  0  0  0  0  0
    5.8342    0.7558   -1.4532 H   0  0  0  0  0  0  0  0  0  0  0  0
    4.6050   -1.1091    0.4998 H   0  0  0  0  0  0  0  0  0  0  0  0
   -0.7972   -0.3687   -0.0793 H   0  0  0  0  0  0  0  0  0  0  0  0
   -2.0425   -1.9826   -0.0073 H   0  0  0  0  0  0  0  0  0  0  0  0
   -1.5325   -3.6232   -2.5312 H   0  0  0  0  0  0  0  0  0  0  0  0
   -2.6104   -5.4632   -1.7673 H   0  0  0  0  0  0  0  0  0  0  0  0
   -3.8345   -4.5282   -0.8298 H   0  0  0  0  0  0  0  0  0  0  0  0
   -1.3710   -5.8893    0.0678 H   0  0  0  0  0  0  0  0  0  0  0  0
   -2.6296   -5.0192    1.0379 H   0  0  0  0  0  0  0  0  0  0  0  0
    0.0761   -4.0332    0.1578 H   0  0  0  0  0  0  0  0  0  0  0  0
   -0.8660   -2.6587    4.3838 H   0  0  0  0  0  0  0  0  0  0  0  0
   -4.2833   -0.8016   -2.5900 H   0  0  0  0  0  0  0  0  0  0  0  0
   -2.8080    0.7988   -2.9979 H   0  0  0  0  0  0  0  0  0  0  0  0
   -2.6921    0.3633    0.0308 H   0  0  0  0  0  0  0  0  0  0  0  0
   -2.2898    1.8238   -0.9108 H   0  0  0  0  0  0  0  0  0  0  0  0
   -4.5524    1.9472   -1.8724 H   0  0  0  0  0  0  0  0  0  0  0  0
   -5.0122    0.4111   -1.1237 H   0  0  0  0  0  0  0  0  0  0  0  0
   -4.5855    1.4609    1.1326 H   0  0  0  0  0  0  0  0  0  0  0  0
   -5.8588    2.3138    0.1401 H   0  0  0  0  0  0  0  0  0  0  0  0
   -3.2621    3.5075   -0.3681 H   0  0  0  0  0  0  0  0  0  0  0  0
   -5.0633    2.6523    2.7586 H   0  0  0  0  0  0  0  0  0  0  0  0
   -4.2699    4.0390    3.5829 H   0  0  0  0  0  0  0  0  0  0  0  0
   -4.0113    5.9042    0.4153 H   0  0  0  0  0  0  0  0  0  0  0  0
   -0.6024    0.9340   -2.4851 H   0  0  0  0  0  0  0  0  0  0  0  0
   -0.8158   -0.7013   -3.1263 H   0  0  0  0  0  0  0  0  0  0  0  0
  1  2  1  0
  2  3  1  0
  3  4  1  0
  2  5  1  0
  5  6  1  0
  2  7  1  0
  7  8  1  0
  8  9  1  0
  9 10  2  0
 10 11  1  0
 11 12  2  0
 12 13  1  0
 11 14  1  0
 14 15  1  0
 15 16  1  0
 16 17  1  0
 17 18  1  0
 18 19  1  0
 19 20  1  0
 20 21  1  0
 21 22  1  0
 22 23  1  0
 22 24  2  0
 17 25  1  0
 25 26  2  0
 25 27  1  0
 27 28  1  0
 28 29  1  0
 29 30  1  0
 30 31  1  0
 31 32  1  0
 32 33  1  0
 33 34  1  0
 33 35  2  3
 28 36  1  0
 13  9  1  0
 36 14  1  0
 20 16  1  0
  1 37  1  0
  1 38  1  0
  3 39  1  0
  3 40  1  0
  4 41  1  0
  5 42  1  0
  5 43  1  0
  6 44  1  0
  7 45  1  0
  7 46  1  0
  8 47  1  0
 14 48  1  0
 16 49  1  1
 17 50  1  6
 18 51  1  0
 18 52  1  0
 19 53  1  0
 19 54  1  0
 20 55  1  6
 23 56  1  0
 27 57  1  0
 28 58  1  6
 29 59  1  0
 29 60  1  0
 30 61  1  0
 30 62  1  0
 31 63  1  0
 31 64  1  0
 32 65  1  0
 34 66  1  0
 34 67  1  0
 35 68  1  0
 36 69  1  0
 36 70  1  0
M  END
$$$$
[H]c1c([H])c([H])c(S(=O)(=O)N([H])C(=O)C([H])([H])[C@@]([H])(C([H])(C([H])([H])[H])C([H])([H])[H])C(C([H])([H])[H])(C([H])([H])[H])C([H])([H])[H])c([H])c1[H]
     RDKit          3D

 46 46  0  0  0  0  0  0  0  0999 V2000
   -2.7674    1.5178   -0.4641 C   0  0  0  0  0  0  0  0  0  0  0  0
   -4.0982    1.8002    0.0371 C   0  0  0  0  0  0  0  0  0  0  0  0
   -1.9782    2.8411   -0.4531 C   0  0  0  0  0  0  0  0  0  0  0  0
   -1.8744    0.5004    0.2187 C   0  0  1  0  0  0  0  0  0  0  0  0
   -2.5245   -0.8629    0.2160 C   0  0  0  0  0  0  0  0  0  0  0  0
   -1.7470   -1.9924    0.8251 C   0  0  0  0  0  0  0  0  0  0  0  0
   -2.9056   -1.3178   -1.1978 C   0  0  0  0  0  0  0  0  0  0  0  0
   -3.8015   -0.8742    1.0906 C   0  0  0  0  0  0  0  0  0  0  0  0
   -0.5967    0.5797   -0.5682 C   0  0  0  0  0  0  0  0  0  0  0  0
    0.5504   -0.1943   -0.1607 C   0  0  0  0  0  0  0  0  0  0  0  0
    1.5214   -0.7332   -1.0512 N   0  0  0  0  0  0  0  0  0  0  0  0
    2.8763   -1.6496   -0.6568 S   0  0  0  0  0  0  0  0  0  0  0  0
    2.4965   -2.6623    0.4179 O   0  0  0  0  0  0  0  0  0  0  0  0
    4.2213   -0.7485   -0.0226 C   0  0  0  0  0  0  0  0  0  0  0  0
    4.3963   -0.5251    1.3205 C   0  0  0  0  0  0  0  0  0  0  0  0
    5.4856    0.2027    1.7997 C   0  0  0  0  0  0  0  0  0  0  0  0
    6.4058    0.7085    0.9086 C   0  0  0  0  0  0  0  0  0  0  0  0
    6.2239    0.4796   -0.4441 C   0  0  0  0  0  0  0  0  0  0  0  0
    5.1438   -0.2402   -0.8994 C   0  0  0  0  0  0  0  0  0  0  0  0
    3.4091   -2.4673   -1.7959 O   0  0  0  0  0  0  0  0  0  0  0  0
    0.7558   -0.4442    1.0553 O   0  0  0  0  0  0  0  0  0  0  0  0
   -2.8247    1.2314   -1.5487 H   0  0  0  0  0  0  0  0  0  0  0  0
   -4.9581    1.2973   -0.4994 H   0  0  0  0  0  0  0  0  0  0  0  0
   -4.3149    1.7724    1.0965 H   0  0  0  0  0  0  0  0  0  0  0  0
   -4.3588    2.8996   -0.2262 H   0  0  0  0  0  0  0  0  0  0  0  0
   -1.4014    2.9664    0.4826 H   0  0  0  0  0  0  0  0  0  0  0  0
   -2.7166    3.7043   -0.4177 H   0  0  0  0  0  0  0  0  0  0  0  0
   -1.4305    2.9931   -1.3806 H   0  0  0  0  0  0  0  0  0  0  0  0
   -1.7084    0.8154    1.2464 H   0  0  0  0  0  0  0  0  0  0  0  0
   -0.9635   -2.4290    0.1847 H   0  0  0  0  0  0  0  0  0  0  0  0
   -1.5141   -1.8608    1.8805 H   0  0  0  0  0  0  0  0  0  0  0  0
   -2.5172   -2.8547    0.8556 H   0  0  0  0  0  0  0  0  0  0  0  0
   -2.2875   -0.8270   -1.9584 H   0  0  0  0  0  0  0  0  0  0  0  0
   -4.0034   -1.1875   -1.3729 H   0  0  0  0  0  0  0  0  0  0  0  0
   -2.7393   -2.4138   -1.3338 H   0  0  0  0  0  0  0  0  0  0  0  0
   -3.7252   -0.2597    1.9735 H   0  0  0  0  0  0  0  0  0  0  0  0
   -3.9509   -1.9278    1.5221 H   0  0  0  0  0  0  0  0  0  0  0  0
   -4.6747   -0.7630    0.4406 H   0  0  0  0  0  0  0  0  0  0  0  0
   -0.2353    1.6638   -0.4752 H   0  0  0  0  0  0  0  0  0  0  0  0
   -0.8203    0.5230   -1.6628 H   0  0  0  0  0  0  0  0  0  0  0  0
    1.3510   -0.5170   -2.0812 H   0  0  0  0  0  0  0  0  0  0  0  0
    3.7055   -0.8973    2.0620 H   0  0  0  0  0  0  0  0  0  0  0  0
    5.6128    0.3741    2.8716 H   0  0  0  0  0  0  0  0  0  0  0  0
    7.2401    1.2623    1.2583 H   0  0  0  0  0  0  0  0  0  0  0  0
    6.9735    0.8959   -1.1111 H   0  0  0  0  0  0  0  0  0  0  0  0
    5.0697   -0.3791   -1.9825 H   0  0  0  0  0  0  0  0  0  0  0  0
  1  2  1  0
  1  3  1  0
  1  4  1  0
  4  5  1  0
  5  6  1  0
  5  7  1  0
  5  8  1  0
  4  9  1  0
  9 10  1  0
 10 11  1  0
 11 12  1  0
 12 13  2  0
 12 14  1  0
 14 15  2  0
 15 16  1  0
 16 17  2  0
 17 18  1  0
 18 19  2  0
 12 20  2  0
 10 21  2  0
 19 14  1  0
  1 22  1  0
  2 23  1  0
  2 24  1  0
  2 25  1  0
  3 26  1  0
  3 27  1  0
  3 28  1  0
  4 29  1  1
  6 30  1  0
  6 31  1  0
  6 32  1  0
  7 33  1  0
  7 34  1  0
  7 35  1  0
  8 36  1  0
  8 37  1  0
  8 38  1  0
  9 39  1  0
  9 40  1  0
 11 41  1  0
 15 42  1  0
 16 43  1  0
 17 44  1  0
 18 45  1  0
 19 46  1  0
M  END
$$$$
[H]O[C@@]1([H])C([H])([H])C([H])([H])[C@@]2([H])C3([H])C([H])([H])C([H])([H])C4=C([H])C(=O)C([H])([H])C([H])([H])[C@]4(C([H])([H])[H])C3([H])C([H])([H])C([H])([H])[C@]12C([H])([H])[H]
     RDKit          3D

 49 52  0  0  0  0  0  0  0  0999 V2000
    2.4781    0.9263    0.9901 C   0  0  0  0  0  0  0  0  0  0  0  0
    2.3007    0.4471   -0.4077 C   0  0  2  0  0  0  0  0  0  0  0  0
    1.5686    1.4030   -1.2587 C   0  0  0  0  0  0  0  0  0  0  0  0
    0.1967    1.5387   -0.6215 C   0  0  0  0  0  0  0  0  0  0  0  0
   -0.5708    0.2390   -0.6872 C   0  0  0  0  0  0  0  0  0  0  0  0
    0.2103   -0.9612   -0.2733 C   0  0  0  0  0  0  0  0  0  0  0  0
   -0.1584   -1.4685    1.1226 C   0  0  0  0  0  0  0  0  0  0  0  0
   -1.5980   -1.8544    1.0747 C   0  0  0  0  0  0  0  0  0  0  0  0
   -2.4498   -0.9334    0.2878 C   0  0  0  0  0  0  0  0  0  0  0  0
   -3.6512   -1.3568   -0.0711 C   0  0  0  0  0  0  0  0  0  0  0  0
   -4.5379   -0.5021   -0.8444 C   0  0  0  0  0  0  0  0  0  0  0  0
   -5.4897   -0.9174   -1.5406 O   0  0  0  0  0  0  0  0  0  0  0  0
   -4.2552    0.9639   -0.7726 C   0  0  0  0  0  0  0  0  0  0  0  0
   -2.8015    1.1370   -1.0564 C   0  0  0  0  0  0  0  0  0  0  0  0
   -1.9021    0.4075   -0.0483 C   0  0  2  0  0  0  0  0  0  0  0  0
   -1.9096    1.2702    1.1792 C   0  0  0  0  0  0  0  0  0  0  0  0
    1.6523   -0.9070   -0.5281 C   0  0  2  0  0  0  0  0  0  0  0  0
    2.5455   -1.7085    0.3473 C   0  0  0  0  0  0  0  0  0  0  0  0
    3.9280   -1.1805   -0.0708 C   0  0  0  0  0  0  0  0  0  0  0  0
    3.6757    0.0529   -0.9164 C   0  0  2  0  0  0  0  0  0  0  0  0
    4.6176    1.0285   -0.7535 O   0  0  0  0  0  0  0  0  0  0  0  0
    3.1941    0.3192    1.5812 H   0  0  0  0  0  0  0  0  0  0  0  0
    1.5846    1.0557    1.5840 H   0  0  0  0  0  0  0  0  0  0  0  0
    2.9656    1.9424    0.9135 H   0  0  0  0  0  0  0  0  0  0  0  0
    2.0213    2.4023   -1.3451 H   0  0  0  0  0  0  0  0  0  0  0  0
    1.4047    0.9370   -2.2639 H   0  0  0  0  0  0  0  0  0  0  0  0
   -0.3692    2.2754   -1.2646 H   0  0  0  0  0  0  0  0  0  0  0  0
    0.2494    1.9874    0.3632 H   0  0  0  0  0  0  0  0  0  0  0  0
   -0.7656    0.1253   -1.7995 H   0  0  0  0  0  0  0  0  0  0  0  0
   -0.1876   -1.8332   -0.8913 H   0  0  0  0  0  0  0  0  0  0  0  0
    0.4273   -2.4306    1.2274 H   0  0  0  0  0  0  0  0  0  0  0  0
    0.1513   -0.8319    1.9277 H   0  0  0  0  0  0  0  0  0  0  0  0
   -1.6900   -2.8608    0.5785 H   0  0  0  0  0  0  0  0  0  0  0  0
   -2.0586   -1.9625    2.0840 H   0  0  0  0  0  0  0  0  0  0  0  0
   -4.0130   -2.3509    0.1981 H   0  0  0  0  0  0  0  0  0  0  0  0
   -4.4948    1.3755    0.2240 H   0  0  0  0  0  0  0  0  0  0  0  0
   -4.8185    1.5211   -1.5238 H   0  0  0  0  0  0  0  0  0  0  0  0
   -2.5459    0.8418   -2.0943 H   0  0  0  0  0  0  0  0  0  0  0  0
   -2.5526    2.2123   -0.9558 H   0  0  0  0  0  0  0  0  0  0  0  0
   -2.1537    2.3334    0.9534 H   0  0  0  0  0  0  0  0  0  0  0  0
   -2.7534    0.9096    1.8329 H   0  0  0  0  0  0  0  0  0  0  0  0
   -1.0135    1.2547    1.7831 H   0  0  0  0  0  0  0  0  0  0  0  0
    1.8712   -1.2379   -1.5901 H   0  0  0  0  0  0  0  0  0  0  0  0
    2.4877   -2.7794    0.0650 H   0  0  0  0  0  0  0  0  0  0  0  0
    2.3666   -1.5415    1.4285 H   0  0  0  0  0  0  0  0  0  0  0  0
    4.4619   -1.9651   -0.6623 H   0  0  0  0  0  0  0  0  0  0  0  0
    4.5653   -0.9767    0.8090 H   0  0  0  0  0  0  0  0  0  0  0  0
    3.5578   -0.2925   -1.9633 H   0  0  0  0  0  0  0  0  0  0  0  0
    4.2584    1.9455   -0.6926 H   0  0  0  0  0  0  0  0  0  0  0  0
  2  1  1  1
  2  3  1  0
  3  4  1  0
  4  5  1  0
  5  6  1  0
  6  7  1  0
  7  8  1  0
  8  9  1  0
  9 10  2  0
 10 11  1  0
 11 12  2  0
 11 13  1  0
 13 14  1  0
 14 15  1  0
 15 16  1  1
  6 17  1  0
 17 18  1  0
 18 19  1  0
 19 20  1  0
 20 21  1  0
 17  2  1  0
 20  2  1  0
 15  5  1  0
 15  9  1  0
  1 22  1  0
  1 23  1  0
  1 24  1  0
  3 25  1  0
  3 26  1  0
  4 27  1  0
  4 28  1  0
  5 29  1  0
  6 30  1  0
  7 31  1  0
  7 32  1  0
  8 33  1  0
  8 34  1  0
 10 35  1  0
 13 36  1  0
 13 37  1  0
 14 38  1  0
 14 39  1  0
 16 40  1  0
 16 41  1  0
 16 42  1  0
 17 43  1  6
 18 44  1  0
 18 45  1  0
 19 46  1  0
 19 47  1  0
 20 48  1  6
 21 49  1  0
M  END
$$$$
[H]OC(=O)[C@@]([H])(N([H])C(=O)C1([H])N(C(=O)c2c([H])c([H])c([H])c([H])c2[H])C([H])([H])C([H])([H])C1([H])[H])C([H])(C([H])([H])[H])C([H])([H])[H]
     RDKit          3D

 45 46  0  0  0  0  0  0  0  0999 V2000
   -4.9531    0.1284   -1.0244 C   0  0  0  0  0  0  0  0  0  0  0  0
   -4.2084    1.0408   -0.0974 C   0  0  0  0  0  0  0  0  0  0  0  0
   -5.1959    1.7247    0.8179 C   0  0  0  0  0  0  0  0  0  0  0  0
   -3.1743    0.3515    0.7354 C   0  0  1  0  0  0  0  0  0  0  0  0
   -3.7885   -0.6817    1.5658 C   0  0  0  0  0  0  0  0  0  0  0  0
   -4.8300   -0.3836    2.4166 O   0  0  0  0  0  0  0  0  0  0  0  0
   -3.3739   -1.8654    1.5171 O   0  0  0  0  0  0  0  0  0  0  0  0
   -2.1076   -0.2225   -0.0470 N   0  0  0  0  0  0  0  0  0  0  0  0
   -0.7451    0.2305    0.1099 C   0  0  0  0  0  0  0  0  0  0  0  0
    0.2553   -0.3761   -0.6887 C   0  0  0  0  0  0  0  0  0  0  0  0
    0.1959   -1.9124   -0.7952 C   0  0  0  0  0  0  0  0  0  0  0  0
    1.1860   -2.0302   -1.9750 C   0  0  0  0  0  0  0  0  0  0  0  0
    2.1845   -0.8843   -1.7218 C   0  0  0  0  0  0  0  0  0  0  0  0
    1.6469   -0.2010   -0.5130 N   0  0  0  0  0  0  0  0  0  0  0  0
    2.4979    0.3038    0.4845 C   0  0  0  0  0  0  0  0  0  0  0  0
    1.9388    0.6394    1.5970 O   0  0  0  0  0  0  0  0  0  0  0  0
    3.9276    0.5110    0.4612 C   0  0  0  0  0  0  0  0  0  0  0  0
    4.7471    0.5036   -0.6234 C   0  0  0  0  0  0  0  0  0  0  0  0
    6.1332    0.6474   -0.5411 C   0  0  0  0  0  0  0  0  0  0  0  0
    6.7239    0.8087    0.6941 C   0  0  0  0  0  0  0  0  0  0  0  0
    5.9410    0.8253    1.8221 C   0  0  0  0  0  0  0  0  0  0  0  0
    4.5816    0.6795    1.6956 C   0  0  0  0  0  0  0  0  0  0  0  0
   -0.5700    1.1306    0.9493 O   0  0  0  0  0  0  0  0  0  0  0  0
   -5.7934   -0.3220   -0.4901 H   0  0  0  0  0  0  0  0  0  0  0  0
   -5.3955    0.7453   -1.8537 H   0  0  0  0  0  0  0  0  0  0  0  0
   -4.2890   -0.6092   -1.5285 H   0  0  0  0  0  0  0  0  0  0  0  0
   -3.7518    1.8385   -0.7370 H   0  0  0  0  0  0  0  0  0  0  0  0
   -5.5360    2.6774    0.3360 H   0  0  0  0  0  0  0  0  0  0  0  0
   -4.7578    1.9824    1.7870 H   0  0  0  0  0  0  0  0  0  0  0  0
   -6.0967    1.0675    0.9054 H   0  0  0  0  0  0  0  0  0  0  0  0
   -2.7463    1.1389    1.4140 H   0  0  0  0  0  0  0  0  0  0  0  0
   -5.2057   -1.0504    3.0792 H   0  0  0  0  0  0  0  0  0  0  0  0
   -2.2951   -0.9681   -0.7372 H   0  0  0  0  0  0  0  0  0  0  0  0
    0.0605   -0.0793   -1.7984 H   0  0  0  0  0  0  0  0  0  0  0  0
    0.6374   -2.3773    0.0962 H   0  0  0  0  0  0  0  0  0  0  0  0
   -0.7895   -2.2718   -1.0737 H   0  0  0  0  0  0  0  0  0  0  0  0
    0.5972   -1.7584   -2.8678 H   0  0  0  0  0  0  0  0  0  0  0  0
    1.6642   -3.0042   -2.0144 H   0  0  0  0  0  0  0  0  0  0  0  0
    2.2434   -0.1860   -2.5542 H   0  0  0  0  0  0  0  0  0  0  0  0
    3.1314   -1.4179   -1.4794 H   0  0  0  0  0  0  0  0  0  0  0  0
    4.3584    0.4256   -1.6074 H   0  0  0  0  0  0  0  0  0  0  0  0
    6.7048    0.6283   -1.4480 H   0  0  0  0  0  0  0  0  0  0  0  0
    7.7957    0.9167    0.7207 H   0  0  0  0  0  0  0  0  0  0  0  0
    6.4204    0.9534    2.7819 H   0  0  0  0  0  0  0  0  0  0  0  0
    4.0306    0.7026    2.6372 H   0  0  0  0  0  0  0  0  0  0  0  0
  1  2  1  0
  2  3  1  0
  2  4  1  0
  4  5  1  0
  5  6  1  0
  5  7  2  0
  4  8  1  0
  8  9  1  0
  9 10  1  0
 10 11  1  0
 11 12  1  0
 12 13  1  0
 13 14  1  0
 14 15  1  0
 15 16  2  0
 15 17  1  0
 17 18  2  0
 18 19  1  0
 19 20  2  0
 20 21  1  0
 21 22  2  0
  9 23  2  0
 14 10  1  0
 22 17  1  0
  1 24  1  0
  1 25  1  0
  1 26  1  0
  2 27  1  0
  3 28  1  0
  3 29  1  0
  3 30  1  0
  4 31  1  1
  6 32  1  0
  8 33  1  0
 10 34  1  0
 11 35  1  0
 11 36  1  0
 12 37  1  0
 12 38  1  0
 13 39  1  0
 13 40  1  0
 18 41  1  0
 19 42  1  0
 20 43  1  0
 21 44  1  0
 22 45  1  0
M  END
$$$$
[H]N=C(N([H])[H])N([H])C([H])([H])C([H])([H])C([H])([H])[C@@]([H])(C(=O)N1C([H])([H])C([H])([H])C([H])([H])[C@@]1([H])C(=O)N([H])[C@]([H])(C(=O)N([H])[C@]([H])(C(=O)N([H])[H])C([H])([H])c1c([H])c([H])c([H])c([H])c1[H])C([H])([H])C([H])(C([H])([H])[H])C([H])([H])[H])N([H])C(=O)C([H])([H])[H]
     RDKit          3D

 85 86  0  0  0  0  0  0  0  0999 V2000
    1.9702   -2.2882   -2.5832 C   0  0  0  0  0  0  0  0  0  0  0  0
    2.2284   -0.8419   -2.9188 C   0  0  0  0  0  0  0  0  0  0  0  0
    1.8116   -0.6034   -4.3727 C   0  0  0  0  0  0  0  0  0  0  0  0
    1.4032    0.0592   -2.0751 C   0  0  0  0  0  0  0  0  0  0  0  0
    1.7039   -0.0921   -0.5711 C   0  0  2  0  0  0  0  0  0  0  0  0
    0.7703    0.8522    0.0747 N   0  0  0  0  0  0  0  0  0  0  0  0
   -0.3258    0.3455    0.7802 C   0  0  0  0  0  0  0  0  0  0  0  0
   -0.4877   -0.9052    0.8494 O   0  0  0  0  0  0  0  0  0  0  0  0
   -1.2579    1.3235    1.4156 C   0  0  2  0  0  0  0  0  0  0  0  0
   -0.9881    1.3252    2.9273 C   0  0  0  0  0  0  0  0  0  0  0  0
   -2.2243    2.0629    3.3887 C   0  0  0  0  0  0  0  0  0  0  0  0
   -3.3041    1.3558    2.5431 C   0  0  0  0  0  0  0  0  0  0  0  0
   -2.6557    0.9223    1.3293 N   0  0  0  0  0  0  0  0  0  0  0  0
   -3.2271    0.2627    0.2109 C   0  0  0  0  0  0  0  0  0  0  0  0
   -2.4054    0.0385   -0.7764 O   0  0  0  0  0  0  0  0  0  0  0  0
   -4.5692   -0.2233   -0.0573 C   0  0  2  0  0  0  0  0  0  0  0  0
   -5.3622   -0.6033    1.1323 C   0  0  0  0  0  0  0  0  0  0  0  0
   -6.7503   -1.1463    0.8200 C   0  0  0  0  0  0  0  0  0  0  0  0
   -7.5747   -0.1091    0.1195 C   0  0  0  0  0  0  0  0  0  0  0  0
   -7.7288    1.0795    0.9540 N   0  0  0  0  0  0  0  0  0  0  0  0
   -8.4526    2.1634    0.4059 C   0  0  0  0  0  0  0  0  0  0  0  0
   -8.0565    3.5235    0.6150 N   0  0  0  0  0  0  0  0  0  0  0  0
   -9.4909    1.9722   -0.3025 N   0  0  0  0  0  0  0  0  0  0  0  0
   -4.5600   -1.3189   -1.0232 N   0  0  0  0  0  0  0  0  0  0  0  0
   -4.8904   -1.2514   -2.3712 C   0  0  0  0  0  0  0  0  0  0  0  0
   -4.8295   -2.4917   -3.2228 C   0  0  0  0  0  0  0  0  0  0  0  0
   -5.2506   -0.2135   -2.9760 O   0  0  0  0  0  0  0  0  0  0  0  0
    3.0921    0.3376   -0.3322 C   0  0  0  0  0  0  0  0  0  0  0  0
    3.3621    1.5689   -0.1096 O   0  0  0  0  0  0  0  0  0  0  0  0
    4.1611   -0.5640   -0.3339 N   0  0  0  0  0  0  0  0  0  0  0  0
    5.5553   -0.1239   -0.1037 C   0  0  1  0  0  0  0  0  0  0  0  0
    6.0000   -0.6585    1.2411 C   0  0  0  0  0  0  0  0  0  0  0  0
    7.3675   -0.3296    1.6442 C   0  0  0  0  0  0  0  0  0  0  0  0
    8.4112   -1.2022    1.4505 C   0  0  0  0  0  0  0  0  0  0  0  0
    9.7016   -0.9097    1.8194 C   0  0  0  0  0  0  0  0  0  0  0  0
   10.0186    0.2866    2.4092 C   0  0  0  0  0  0  0  0  0  0  0  0
    8.9947    1.1847    2.6177 C   0  0  0  0  0  0  0  0  0  0  0  0
    7.7003    0.8874    2.2456 C   0  0  0  0  0  0  0  0  0  0  0  0
    6.3944   -0.6366   -1.1877 C   0  0  0  0  0  0  0  0  0  0  0  0
    7.7320   -0.2877   -1.4332 N   0  0  0  0  0  0  0  0  0  0  0  0
    5.8732   -1.4836   -2.0059 O   0  0  0  0  0  0  0  0  0  0  0  0
    1.6907   -2.8512   -3.5150 H   0  0  0  0  0  0  0  0  0  0  0  0
    1.1538   -2.3934   -1.8312 H   0  0  0  0  0  0  0  0  0  0  0  0
    2.8968   -2.7759   -2.1873 H   0  0  0  0  0  0  0  0  0  0  0  0
    3.3124   -0.5576   -2.8071 H   0  0  0  0  0  0  0  0  0  0  0  0
    2.2315   -1.3985   -5.0005 H   0  0  0  0  0  0  0  0  0  0  0  0
    0.7140   -0.5386   -4.3857 H   0  0  0  0  0  0  0  0  0  0  0  0
    2.2117    0.4038   -4.6472 H   0  0  0  0  0  0  0  0  0  0  0  0
    0.3133   -0.1256   -2.2693 H   0  0  0  0  0  0  0  0  0  0  0  0
    1.5867    1.1264   -2.3648 H   0  0  0  0  0  0  0  0  0  0  0  0
    1.5421   -1.1176   -0.2818 H   0  0  0  0  0  0  0  0  0  0  0  0
    0.9593    1.8492   -0.0160 H   0  0  0  0  0  0  0  0  0  0  0  0
   -1.1026    2.3382    1.0586 H   0  0  0  0  0  0  0  0  0  0  0  0
   -0.0447    1.8052    3.1665 H   0  0  0  0  0  0  0  0  0  0  0  0
   -1.0909    0.2718    3.3100 H   0  0  0  0  0  0  0  0  0  0  0  0
   -2.1626    3.1040    3.0409 H   0  0  0  0  0  0  0  0  0  0  0  0
   -2.4152    1.9469    4.4740 H   0  0  0  0  0  0  0  0  0  0  0  0
   -4.0976    2.0735    2.2789 H   0  0  0  0  0  0  0  0  0  0  0  0
   -3.7409    0.5281    3.1433 H   0  0  0  0  0  0  0  0  0  0  0  0
   -5.1455    0.6372   -0.5680 H   0  0  0  0  0  0  0  0  0  0  0  0
   -5.5408    0.3046    1.7761 H   0  0  0  0  0  0  0  0  0  0  0  0
   -4.8257   -1.3269    1.7439 H   0  0  0  0  0  0  0  0  0  0  0  0
   -7.2593   -1.3584    1.7978 H   0  0  0  0  0  0  0  0  0  0  0  0
   -6.7042   -2.0532    0.2050 H   0  0  0  0  0  0  0  0  0  0  0  0
   -7.0854    0.2219   -0.8088 H   0  0  0  0  0  0  0  0  0  0  0  0
   -8.6007   -0.4935   -0.1187 H   0  0  0  0  0  0  0  0  0  0  0  0
   -7.3484    1.1801    1.9139 H   0  0  0  0  0  0  0  0  0  0  0  0
   -8.7794    4.2999    0.6058 H   0  0  0  0  0  0  0  0  0  0  0  0
   -7.0714    3.7938    0.7794 H   0  0  0  0  0  0  0  0  0  0  0  0
   -9.8734    1.0299   -0.5249 H   0  0  0  0  0  0  0  0  0  0  0  0
   -4.2649   -2.2451   -0.6052 H   0  0  0  0  0  0  0  0  0  0  0  0
   -5.8735   -2.7908   -3.4676 H   0  0  0  0  0  0  0  0  0  0  0  0
   -4.2138   -2.3746   -4.1122 H   0  0  0  0  0  0  0  0  0  0  0  0
   -4.3777   -3.3052   -2.5957 H   0  0  0  0  0  0  0  0  0  0  0  0
    4.0600   -1.5797   -0.4782 H   0  0  0  0  0  0  0  0  0  0  0  0
    5.5184    0.9749   -0.0713 H   0  0  0  0  0  0  0  0  0  0  0  0
    5.8976   -1.7838    1.2534 H   0  0  0  0  0  0  0  0  0  0  0  0
    5.3140   -0.2986    2.0569 H   0  0  0  0  0  0  0  0  0  0  0  0
    8.2243   -2.1549    0.9921 H   0  0  0  0  0  0  0  0  0  0  0  0
   10.5102   -1.6178    1.6553 H   0  0  0  0  0  0  0  0  0  0  0  0
   11.0269    0.5637    2.7178 H   0  0  0  0  0  0  0  0  0  0  0  0
    9.2472    2.1247    3.0819 H   0  0  0  0  0  0  0  0  0  0  0  0
    6.8979    1.5956    2.4120 H   0  0  0  0  0  0  0  0  0  0  0  0
    8.3970   -0.9755   -1.8375 H   0  0  0  0  0  0  0  0  0  0  0  0
    8.0531    0.6759   -1.2064 H   0  0  0  0  0  0  0  0  0  0  0  0
  1  2  1  0
  2  3  1  0
  2  4  1  0
  4  5  1  0
  5  6  1  0
  6  7  1  0
  7  8  2  0
  7  9  1  0
  9 10  1  0
 10 11  1  0
 11 12  1  0
 12 13  1  0
 13 14  1  0
 14 15  2  0
 14 16  1  0
 16 17  1  0
 17 18  1  0
 18 19  1  0
 19 20  1  0
 20 21  1  0
 21 22  1  0
 21 23  2  3
 16 24  1  0
 24 25  1  0
 25 26  1  0
 25 27  2  0
  5 28  1  0
 28 29  2  0
 28 30  1  0
 30 31  1  0
 31 32  1  0
 32 33  1  0
 33 34  2  0
 34 35  1  0
 35 36  2  0
 36 37  1  0
 37 38  2  0
 31 39  1  0
 39 40  1  0
 39 41  2  0
 13  9  1  0
 38 33  1  0
  1 42  1  0
  1 43  1  0
  1 44  1  0
  2 45  1  0
  3 46  1  0
  3 47  1  0
  3 48  1  0
  4 49  1  0
  4 50  1  0
  5 51  1  1
  6 52  1  0
  9 53  1  6
 10 54  1  0
 10 55  1  0
 11 56  1  0
 11 57  1  0
 12 58  1  0
 12 59  1  0
 16 60  1  6
 17 61  1  0
 17 62  1  0
 18 63  1  0
 18 64  1  0
 19 65  1  0
 19 66  1  0
 20 67  1  0
 22 68  1  0
 22 69  1  0
 23 70  1  0
 24 71  1  0
 26 72  1  0
 26 73  1  0
 26 74  1  0
 30 75  1  0
 31 76  1  1
 32 77  1  0
 32 78  1  0
 34 79  1  0
 35 80  1  0
 36 81  1  0
 37 82  1  0
 38 83  1  0
 40 84  1  0
 40 85  1  0
M  END
$$$$
[H]c1c([H])c([H])c2c(c1[H])c1c3c(c4c5c([H])c([H])c([H])c([H])c5n5c4c1n2[C@@]1([H])O[C@@]5(C([H])([H])[H])[C@]([H])(OC([H])([H])[H])[C@]([H])(N([H])C([H])([H])[H])C1([H])[H])C([H])([H])N([H])C3=O
     RDKit          3D

 61 68  0  0  0  0  0  0  0  0999 V2000
   -4.4386   -2.8780    0.1679 C   0  0  0  0  0  0  0  0  0  0  0  0
   -3.8090   -1.5904    0.3778 N   0  0  0  0  0  0  0  0  0  0  0  0
   -3.0941   -1.1003   -0.7825 C   0  0  2  0  0  0  0  0  0  0  0  0
   -1.9488   -2.1343   -1.0311 C   0  0  0  0  0  0  0  0  0  0  0  0
   -0.8309   -1.3766   -0.7857 C   0  0  2  0  0  0  0  0  0  0  0  0
   -0.8910   -0.3628   -1.7312 O   0  0  0  0  0  0  0  0  0  0  0  0
   -1.3909    0.7732   -1.0469 C   0  0  1  0  0  0  0  0  0  0  0  0
   -1.7333    1.7099   -2.2540 C   0  0  0  0  0  0  0  0  0  0  0  0
   -2.5742    0.2945   -0.3750 C   0  0  2  0  0  0  0  0  0  0  0  0
   -2.7278    0.5461    0.9846 O   0  0  0  0  0  0  0  0  0  0  0  0
   -3.7497    1.3916    1.3204 C   0  0  0  0  0  0  0  0  0  0  0  0
   -0.2522    1.3418   -0.3621 N   0  0  0  0  0  0  0  0  0  0  0  0
   -0.0789    2.6647   -0.0554 C   0  0  0  0  0  0  0  0  0  0  0  0
   -0.8988    3.7574   -0.1420 C   0  0  0  0  0  0  0  0  0  0  0  0
   -0.4633    5.0033    0.2534 C   0  0  0  0  0  0  0  0  0  0  0  0
    0.8099    5.1896    0.7491 C   0  0  0  0  0  0  0  0  0  0  0  0
    1.6680    4.1115    0.8530 C   0  0  0  0  0  0  0  0  0  0  0  0
    1.1924    2.8871    0.4471 C   0  0  0  0  0  0  0  0  0  0  0  0
    1.8279    1.6856    0.4620 C   0  0  0  0  0  0  0  0  0  0  0  0
    3.0906    1.2043    0.7966 C   0  0  0  0  0  0  0  0  0  0  0  0
    4.2213    2.0140    1.3378 C   0  0  0  0  0  0  0  0  0  0  0  0
    5.2774    1.0483    1.5209 N   0  0  0  0  0  0  0  0  0  0  0  0
    4.8389   -0.2539    1.1139 C   0  0  0  0  0  0  0  0  0  0  0  0
    5.6081   -1.2219    1.1898 O   0  0  0  0  0  0  0  0  0  0  0  0
    3.4665   -0.1245    0.6655 C   0  0  0  0  0  0  0  0  0  0  0  0
    2.5634   -1.0521    0.1833 C   0  0  0  0  0  0  0  0  0  0  0  0
    2.5597   -2.4073   -0.0193 C   0  0  0  0  0  0  0  0  0  0  0  0
    3.4892   -3.3926    0.1217 C   0  0  0  0  0  0  0  0  0  0  0  0
    3.1176   -4.6965   -0.1883 C   0  0  0  0  0  0  0  0  0  0  0  0
    1.8434   -4.9841   -0.6265 C   0  0  0  0  0  0  0  0  0  0  0  0
    0.9056   -3.9829   -0.7679 C   0  0  0  0  0  0  0  0  0  0  0  0
    1.2633   -2.7004   -0.4653 C   0  0  0  0  0  0  0  0  0  0  0  0
    0.5298   -1.6035   -0.5321 N   0  0  0  0  0  0  0  0  0  0  0  0
    1.3313   -0.5755   -0.1408 C   0  0  0  0  0  0  0  0  0  0  0  0
    0.9558    0.7781   -0.0151 C   0  0  0  0  0  0  0  0  0  0  0  0
   -4.3885   -3.5195    1.0874 H   0  0  0  0  0  0  0  0  0  0  0  0
   -4.0217   -3.4591   -0.6620 H   0  0  0  0  0  0  0  0  0  0  0  0
   -5.5206   -2.7340   -0.0459 H   0  0  0  0  0  0  0  0  0  0  0  0
   -3.0641   -1.7600    1.1142 H   0  0  0  0  0  0  0  0  0  0  0  0
   -3.8003   -1.0759   -1.6054 H   0  0  0  0  0  0  0  0  0  0  0  0
   -2.0704   -3.0207   -0.3824 H   0  0  0  0  0  0  0  0  0  0  0  0
   -2.1554   -2.5046   -2.0656 H   0  0  0  0  0  0  0  0  0  0  0  0
   -1.1139   -0.9764    0.2970 H   0  0  0  0  0  0  0  0  0  0  0  0
   -2.7305    2.1213   -2.1097 H   0  0  0  0  0  0  0  0  0  0  0  0
   -0.9300    2.4338   -2.4276 H   0  0  0  0  0  0  0  0  0  0  0  0
   -1.7980    1.1182   -3.2007 H   0  0  0  0  0  0  0  0  0  0  0  0
   -3.4297    0.9425   -0.8001 H   0  0  0  0  0  0  0  0  0  0  0  0
   -3.7390    1.4946    2.4251 H   0  0  0  0  0  0  0  0  0  0  0  0
   -3.5391    2.4086    0.9117 H   0  0  0  0  0  0  0  0  0  0  0  0
   -4.7531    1.0243    1.0253 H   0  0  0  0  0  0  0  0  0  0  0  0
   -1.9184    3.6463   -0.5182 H   0  0  0  0  0  0  0  0  0  0  0  0
   -1.1529    5.8334    0.1640 H   0  0  0  0  0  0  0  0  0  0  0  0
    1.1639    6.1561    1.0615 H   0  0  0  0  0  0  0  0  0  0  0  0
    2.6684    4.2128    1.2327 H   0  0  0  0  0  0  0  0  0  0  0  0
    4.5306    2.7998    0.6096 H   0  0  0  0  0  0  0  0  0  0  0  0
    3.9736    2.4479    2.3294 H   0  0  0  0  0  0  0  0  0  0  0  0
    6.2157    1.3214    1.9037 H   0  0  0  0  0  0  0  0  0  0  0  0
    4.4704   -3.1701    0.4563 H   0  0  0  0  0  0  0  0  0  0  0  0
    3.8817   -5.4593   -0.0643 H   0  0  0  0  0  0  0  0  0  0  0  0
    1.6145   -6.0357   -0.8539 H   0  0  0  0  0  0  0  0  0  0  0  0
   -0.0717   -4.2089   -1.1054 H   0  0  0  0  0  0  0  0  0  0  0  0
  1  2  1  0
  2  3  1  0
  3  4  1  0
  4  5  1  0
  5  6  1  0
  6  7  1  0
  7  8  1  6
  7  9  1  0
  9 10  1  0
 10 11  1  0
  7 12  1  0
 12 13  1  0
 13 14  2  0
 14 15  1  0
 15 16  2  0
 16 17  1  0
 17 18  2  0
 18 19  1  0
 19 20  2  0
 20 21  1  0
 21 22  1  0
 22 23  1  0
 23 24  2  0
 23 25  1  0
 25 26  2  0
 26 27  1  0
 27 28  2  0
 28 29  1  0
 29 30  2  0
 30 31  1  0
 31 32  2  0
 32 33  1  0
 33 34  1  0
 34 35  2  0
  9  3  1  0
 35 12  1  0
 33  5  1  0
 18 13  1  0
 35 19  1  0
 25 20  1  0
 34 26  1  0
 32 27  1  0
  1 36  1  0
  1 37  1  0
  1 38  1  0
  2 39  1  0
  3 40  1  6
  4 41  1  0
  4 42  1  0
  5 43  1  1
  8 44  1  0
  8 45  1  0
  8 46  1  0
  9 47  1  6
 11 48  1  0
 11 49  1  0
 11 50  1  0
 14 51  1  0
 15 52  1  0
 16 53  1  0
 17 54  1  0
 21 55  1  0
 21 56  1  0
 22 57  1  0
 28 58  1  0
 29 59  1  0
 30 60  1  0
 31 61  1  0
M  END
$$$$
[H]OC(=O)c1c([H])c([H])c([H])c(N([H])C(=O)c2c([H])c([H])c(-c3c([H])c([H])c(S(=O)(=O)N([H])[H])c([H])c3[H])c([H])c2[H])c1[H]
     RDKit          3D

 44 46  0  0  0  0  0  0  0  0999 V2000
   -8.3877    0.6233   -1.7694 N   0  0  0  0  0  0  0  0  0  0  0  0
   -7.9219    1.0153   -0.1538 S   0  0  0  0  0  0  0  0  0  0  0  0
   -8.2161    2.4784    0.1241 O   0  0  0  0  0  0  0  0  0  0  0  0
   -8.6882    0.1662    0.8305 O   0  0  0  0  0  0  0  0  0  0  0  0
   -6.2090    0.6984    0.0063 C   0  0  0  0  0  0  0  0  0  0  0  0
   -5.3104    1.7090   -0.2796 C   0  0  0  0  0  0  0  0  0  0  0  0
   -3.9727    1.4452   -0.1489 C   0  0  0  0  0  0  0  0  0  0  0  0
   -3.4610    0.2287    0.2521 C   0  0  0  0  0  0  0  0  0  0  0  0
   -4.3904   -0.7635    0.5311 C   0  0  0  0  0  0  0  0  0  0  0  0
   -5.7466   -0.5343    0.4106 C   0  0  0  0  0  0  0  0  0  0  0  0
   -2.0305   -0.0330    0.3862 C   0  0  0  0  0  0  0  0  0  0  0  0
   -1.5549   -0.9258    1.3247 C   0  0  0  0  0  0  0  0  0  0  0  0
   -0.2031   -1.1691    1.4485 C   0  0  0  0  0  0  0  0  0  0  0  0
    0.7423   -0.5436    0.6529 C   0  0  0  0  0  0  0  0  0  0  0  0
    0.2824    0.3418   -0.2790 C   0  0  0  0  0  0  0  0  0  0  0  0
   -1.0907    0.5900   -0.4060 C   0  0  0  0  0  0  0  0  0  0  0  0
    2.1851   -0.8568    0.8496 C   0  0  0  0  0  0  0  0  0  0  0  0
    2.5014   -1.6306    1.8001 O   0  0  0  0  0  0  0  0  0  0  0  0
    3.1757   -0.3274    0.0266 N   0  0  0  0  0  0  0  0  0  0  0  0
    4.5444   -0.5766    0.1363 C   0  0  0  0  0  0  0  0  0  0  0  0
    5.1205   -1.6767    0.7256 C   0  0  0  0  0  0  0  0  0  0  0  0
    6.4898   -1.7942    0.7974 C   0  0  0  0  0  0  0  0  0  0  0  0
    7.3382   -0.8443    0.2968 C   0  0  0  0  0  0  0  0  0  0  0  0
    6.7685    0.2720   -0.3021 C   0  0  0  0  0  0  0  0  0  0  0  0
    5.4218    0.3966   -0.3771 C   0  0  0  0  0  0  0  0  0  0  0  0
    7.6256    1.3110   -0.8507 C   0  0  0  0  0  0  0  0  0  0  0  0
    9.0237    1.2220   -0.7947 O   0  0  0  0  0  0  0  0  0  0  0  0
    7.1099    2.3158   -1.3896 O   0  0  0  0  0  0  0  0  0  0  0  0
   -7.5553    0.7801   -2.3795 H   0  0  0  0  0  0  0  0  0  0  0  0
   -8.5687   -0.4226   -1.7989 H   0  0  0  0  0  0  0  0  0  0  0  0
   -5.7095    2.6612   -0.5934 H   0  0  0  0  0  0  0  0  0  0  0  0
   -3.2691    2.2344   -0.3721 H   0  0  0  0  0  0  0  0  0  0  0  0
   -4.0370   -1.7399    0.8509 H   0  0  0  0  0  0  0  0  0  0  0  0
   -6.4733   -1.3009    0.6259 H   0  0  0  0  0  0  0  0  0  0  0  0
   -2.2918   -1.4148    1.9463 H   0  0  0  0  0  0  0  0  0  0  0  0
    0.1682   -1.8825    2.1992 H   0  0  0  0  0  0  0  0  0  0  0  0
    0.9718    0.8607   -0.9270 H   0  0  0  0  0  0  0  0  0  0  0  0
   -1.4532    1.2933   -1.1468 H   0  0  0  0  0  0  0  0  0  0  0  0
    2.8452    0.3164   -0.7514 H   0  0  0  0  0  0  0  0  0  0  0  0
    4.4853   -2.4803    1.1279 H   0  0  0  0  0  0  0  0  0  0  0  0
    6.8687   -2.6895    1.2772 H   0  0  0  0  0  0  0  0  0  0  0  0
    8.4265   -0.9614    0.3666 H   0  0  0  0  0  0  0  0  0  0  0  0
    4.9506    1.2729   -0.8464 H   0  0  0  0  0  0  0  0  0  0  0  0
    9.4956    0.3350   -0.7903 H   0  0  0  0  0  0  0  0  0  0  0  0
  1  2  1  0
  2  3  2  0
  2  4  2  0
  2  5  1  0
  5  6  2  0
  6  7  1  0
  7  8  2  0
  8  9  1  0
  9 10  2  0
  8 11  1  0
 11 12  2  0
 12 13  1  0
 13 14  2  0
 14 15  1  0
 15 16  2  0
 14 17  1  0
 17 18  2  0
 17 19  1  0
 19 20  1  0
 20 21  2  0
 21 22  1  0
 22 23  2  0
 23 24  1  0
 24 25  2  0
 24 26  1  0
 26 27  1  0
 26 28  2  0
 10  5  1  0
 16 11  1  0
 25 20  1  0
  1 29  1  0
  1 30  1  0
  6 31  1  0
  7 32  1  0
  9 33  1  0
 10 34  1  0
 12 35  1  0
 13 36  1  0
 15 37  1  0
 16 38  1  0
 19 39  1  0
 21 40  1  0
 22 41  1  0
 23 42  1  0
 25 43  1  0
 27 44  1  0
M  END
$$$$
[H]OC(=O)[C@@]([H])(N([H])C(=O)[C@@]([H])(N([H])C(=O)[C@]([H])(N([H])C(=O)[C@]([H])(N([H])C(=O)c1c([H])c([H])c([H])c([H])c1[H])C([H])([H])c1c([H])c([H])c([H])c([H])c1[H])C([H])([H])c1c([H])c([H])c([H])c([H])c1[H])C([H])([H])c1c([H])c([H])c([H])c([H])c1[H])C([H])([H])C([H])(C([H])([H])[H])C([H])([H])[H]
     RDKit          3D

 94 97  0  0  0  0  0  0  0  0999 V2000
    6.8260    4.1296   -3.1229 C   0  0  0  0  0  0  0  0  0  0  0  0
    6.9221    2.6940   -2.5542 C   0  0  0  0  0  0  0  0  0  0  0  0
    6.6588    1.7893   -3.7384 C   0  0  0  0  0  0  0  0  0  0  0  0
    5.8954    2.6146   -1.4911 C   0  0  0  0  0  0  0  0  0  0  0  0
    5.7938    1.2730   -0.7726 C   0  0  2  0  0  0  0  0  0  0  0  0
    4.7097    1.4985    0.2049 N   0  0  0  0  0  0  0  0  0  0  0  0
    3.6112    0.6303    0.1781 C   0  0  0  0  0  0  0  0  0  0  0  0
    3.6290   -0.3257   -0.6829 O   0  0  0  0  0  0  0  0  0  0  0  0
    2.4114    0.6712    1.0184 C   0  0  2  0  0  0  0  0  0  0  0  0
    2.5323    0.8897    2.4575 C   0  0  0  0  0  0  0  0  0  0  0  0
    3.2591    0.0068    3.3230 C   0  0  0  0  0  0  0  0  0  0  0  0
    4.5916    0.3085    3.6192 C   0  0  0  0  0  0  0  0  0  0  0  0
    5.3673   -0.4506    4.4498 C   0  0  0  0  0  0  0  0  0  0  0  0
    4.8496   -1.5735    5.0436 C   0  0  0  0  0  0  0  0  0  0  0  0
    3.5326   -1.9114    4.7771 C   0  0  0  0  0  0  0  0  0  0  0  0
    2.7788   -1.1319    3.9397 C   0  0  0  0  0  0  0  0  0  0  0  0
    1.4860   -0.4248    0.6777 N   0  0  0  0  0  0  0  0  0  0  0  0
    0.2015   -0.1337    0.3023 C   0  0  0  0  0  0  0  0  0  0  0  0
   -0.2417    1.0691    0.2464 O   0  0  0  0  0  0  0  0  0  0  0  0
   -0.7780   -1.2215   -0.0716 C   0  0  1  0  0  0  0  0  0  0  0  0
   -0.1787   -2.5213    0.1752 C   0  0  0  0  0  0  0  0  0  0  0  0
   -0.9732   -3.7303   -0.1352 C   0  0  0  0  0  0  0  0  0  0  0  0
   -0.9123   -4.2176   -1.4454 C   0  0  0  0  0  0  0  0  0  0  0  0
   -1.5822   -5.3650   -1.8347 C   0  0  0  0  0  0  0  0  0  0  0  0
   -2.3435   -6.0686   -0.9146 C   0  0  0  0  0  0  0  0  0  0  0  0
   -2.4045   -5.5920    0.3706 C   0  0  0  0  0  0  0  0  0  0  0  0
   -1.7300   -4.4418    0.7518 C   0  0  0  0  0  0  0  0  0  0  0  0
   -2.0667   -0.8968    0.5052 N   0  0  0  0  0  0  0  0  0  0  0  0
   -3.0173   -0.2070   -0.2526 C   0  0  0  0  0  0  0  0  0  0  0  0
   -2.6471    0.0956   -1.4979 O   0  0  0  0  0  0  0  0  0  0  0  0
   -4.3471    0.2502    0.1003 C   0  0  1  0  0  0  0  0  0  0  0  0
   -5.0493   -0.1016    1.3420 C   0  0  0  0  0  0  0  0  0  0  0  0
   -5.3962   -1.5033    1.5297 C   0  0  0  0  0  0  0  0  0  0  0  0
   -4.7370   -2.4272    2.2714 C   0  0  0  0  0  0  0  0  0  0  0  0
   -5.1549   -3.7464    2.3890 C   0  0  0  0  0  0  0  0  0  0  0  0
   -6.2877   -4.1665    1.7348 C   0  0  0  0  0  0  0  0  0  0  0  0
   -6.9947   -3.2569    0.9646 C   0  0  0  0  0  0  0  0  0  0  0  0
   -6.5556   -1.9578    0.8678 C   0  0  0  0  0  0  0  0  0  0  0  0
   -4.5427    1.6517   -0.3310 N   0  0  0  0  0  0  0  0  0  0  0  0
   -5.4002    1.9556   -1.4013 C   0  0  0  0  0  0  0  0  0  0  0  0
   -6.0107    0.9990   -1.9819 O   0  0  0  0  0  0  0  0  0  0  0  0
   -5.6456    3.2860   -1.9057 C   0  0  0  0  0  0  0  0  0  0  0  0
   -5.0900    4.3837   -1.2828 C   0  0  0  0  0  0  0  0  0  0  0  0
   -5.3326    5.6719   -1.7852 C   0  0  0  0  0  0  0  0  0  0  0  0
   -6.1090    5.8506   -2.8784 C   0  0  0  0  0  0  0  0  0  0  0  0
   -6.6717    4.7475   -3.5097 C   0  0  0  0  0  0  0  0  0  0  0  0
   -6.4357    3.4833   -3.0197 C   0  0  0  0  0  0  0  0  0  0  0  0
    7.0318    1.0083   -0.0266 C   0  0  0  0  0  0  0  0  0  0  0  0
    8.1959    0.6893   -0.7416 O   0  0  0  0  0  0  0  0  0  0  0  0
    7.1641    1.0370    1.2196 O   0  0  0  0  0  0  0  0  0  0  0  0
    7.0293    4.8646   -2.3061 H   0  0  0  0  0  0  0  0  0  0  0  0
    7.4961    4.2737   -3.9828 H   0  0  0  0  0  0  0  0  0  0  0  0
    5.7715    4.2598   -3.4232 H   0  0  0  0  0  0  0  0  0  0  0  0
    7.9472    2.5721   -2.2202 H   0  0  0  0  0  0  0  0  0  0  0  0
    5.8851    2.2260   -4.4099 H   0  0  0  0  0  0  0  0  0  0  0  0
    7.6091    1.7519   -4.3329 H   0  0  0  0  0  0  0  0  0  0  0  0
    6.4448    0.7881   -3.3657 H   0  0  0  0  0  0  0  0  0  0  0  0
    4.8969    2.9497   -1.8224 H   0  0  0  0  0  0  0  0  0  0  0  0
    6.1933    3.3382   -0.6822 H   0  0  0  0  0  0  0  0  0  0  0  0
    5.5714    0.4327   -1.4224 H   0  0  0  0  0  0  0  0  0  0  0  0
    4.7845    2.2939    0.8889 H   0  0  0  0  0  0  0  0  0  0  0  0
    1.8522    1.6004    0.6349 H   0  0  0  0  0  0  0  0  0  0  0  0
    1.4883    1.0505    2.8570 H   0  0  0  0  0  0  0  0  0  0  0  0
    2.9855    1.9278    2.5938 H   0  0  0  0  0  0  0  0  0  0  0  0
    5.0800    1.1889    3.1950 H   0  0  0  0  0  0  0  0  0  0  0  0
    6.3927   -0.2119    4.6771 H   0  0  0  0  0  0  0  0  0  0  0  0
    5.4693   -2.1767    5.7060 H   0  0  0  0  0  0  0  0  0  0  0  0
    3.1594   -2.8052    5.2626 H   0  0  0  0  0  0  0  0  0  0  0  0
    1.7631   -1.4009    3.7379 H   0  0  0  0  0  0  0  0  0  0  0  0
    1.8755   -1.3914    0.7515 H   0  0  0  0  0  0  0  0  0  0  0  0
   -0.8923   -1.0617   -1.1909 H   0  0  0  0  0  0  0  0  0  0  0  0
    0.1740   -2.6034    1.2551 H   0  0  0  0  0  0  0  0  0  0  0  0
    0.8251   -2.5990   -0.3789 H   0  0  0  0  0  0  0  0  0  0  0  0
   -0.3250   -3.6858   -2.1850 H   0  0  0  0  0  0  0  0  0  0  0  0
   -1.5328   -5.7413   -2.8397 H   0  0  0  0  0  0  0  0  0  0  0  0
   -2.8798   -6.9786   -1.2085 H   0  0  0  0  0  0  0  0  0  0  0  0
   -2.9757   -6.1107    1.0991 H   0  0  0  0  0  0  0  0  0  0  0  0
   -1.7928   -4.0809    1.7711 H   0  0  0  0  0  0  0  0  0  0  0  0
   -2.2015   -1.1788    1.4819 H   0  0  0  0  0  0  0  0  0  0  0  0
   -5.0343   -0.2801   -0.7479 H   0  0  0  0  0  0  0  0  0  0  0  0
   -5.9901    0.5248    1.4797 H   0  0  0  0  0  0  0  0  0  0  0  0
   -4.4043    0.1924    2.2446 H   0  0  0  0  0  0  0  0  0  0  0  0
   -3.8489   -2.1594    2.8197 H   0  0  0  0  0  0  0  0  0  0  0  0
   -4.6122   -4.4706    2.9882 H   0  0  0  0  0  0  0  0  0  0  0  0
   -6.6353   -5.1656    1.8019 H   0  0  0  0  0  0  0  0  0  0  0  0
   -7.8896   -3.5422    0.4320 H   0  0  0  0  0  0  0  0  0  0  0  0
   -7.1153   -1.2605    0.2701 H   0  0  0  0  0  0  0  0  0  0  0  0
   -4.0236    2.4206    0.1823 H   0  0  0  0  0  0  0  0  0  0  0  0
   -4.4731    4.3278   -0.4217 H   0  0  0  0  0  0  0  0  0  0  0  0
   -4.8850    6.5331   -1.2808 H   0  0  0  0  0  0  0  0  0  0  0  0
   -6.3274    6.8108   -3.3061 H   0  0  0  0  0  0  0  0  0  0  0  0
   -7.2916    4.8893   -4.3850 H   0  0  0  0  0  0  0  0  0  0  0  0
   -6.9025    2.6423   -3.5516 H   0  0  0  0  0  0  0  0  0  0  0  0
    8.5270   -0.2658   -0.7475 H   0  0  0  0  0  0  0  0  0  0  0  0
  1  2  1  0
  2  3  1  0
  2  4  1  0
  4  5  1  0
  5  6  1  0
  6  7  1  0
  7  8  2  0
  7  9  1  0
  9 10  1  0
 10 11  1  0
 11 12  2  0
 12 13  1  0
 13 14  2  0
 14 15  1  0
 15 16  2  0
  9 17  1  0
 17 18  1  0
 18 19  2  0
 18 20  1  0
 20 21  1  0
 21 22  1  0
 22 23  2  0
 23 24  1  0
 24 25  2  0
 25 26  1  0
 26 27  2  0
 20 28  1  0
 28 29  1  0
 29 30  2  0
 29 31  1  0
 31 32  1  0
 32 33  1  0
 33 34  2  0
 34 35  1  0
 35 36  2  0
 36 37  1  0
 37 38  2  0
 31 39  1  0
 39 40  1  0
 40 41  2  0
 40 42  1  0
 42 43  2  0
 43 44  1  0
 44 45  2  0
 45 46  1  0
 46 47  2  0
  5 48  1  0
 48 49  1  0
 48 50  2  0
 16 11  1  0
 27 22  1  0
 38 33  1  0
 47 42  1  0
  1 51  1  0
  1 52  1  0
  1 53  1  0
  2 54  1  0
  3 55  1  0
  3 56  1  0
  3 57  1  0
  4 58  1  0
  4 59  1  0
  5 60  1  6
  6 61  1  0
  9 62  1  6
 10 63  1  0
 10 64  1  0
 12 65  1  0
 13 66  1  0
 14 67  1  0
 15 68  1  0
 16 69  1  0
 17 70  1  0
 20 71  1  6
 21 72  1  0
 21 73  1  0
 23 74  1  0
 24 75  1  0
 25 76  1  0
 26 77  1  0
 27 78  1  0
 28 79  1  0
 31 80  1  6
 32 81  1  0
 32 82  1  0
 34 83  1  0
 35 84  1  0
 36 85  1  0
 37 86  1  0
 38 87  1  0
 39 88  1  0
 43 89  1  0
 44 90  1  0
 45 91  1  0
 46 92  1  0
 47 93  1  0
 49 94  1  0
M  END
$$$$
[H]c1c([H])c([H])c2c([H])c(C(=O)N3C([H])([H])C4([H])C([H])([H])N([H])C([H])([H])C([H])(C3([H])[H])C4([H])[H])oc2c1[H]
     RDKit          3D

 38 41  0  0  0  0  0  0  0  0999 V2000
    0.4415   -2.5046   -0.4913 O   0  0  0  0  0  0  0  0  0  0  0  0
    0.4384   -1.2409   -0.1752 C   0  0  0  0  0  0  0  0  0  0  0  0
   -0.8184   -0.6224   -0.0601 N   0  0  0  0  0  0  0  0  0  0  0  0
   -1.9711   -1.4892   -0.3099 C   0  0  0  0  0  0  0  0  0  0  0  0
   -3.1573   -0.8200   -0.8820 C   0  0  0  0  0  0  0  0  0  0  0  0
   -4.3894   -0.9275   -0.0040 C   0  0  0  0  0  0  0  0  0  0  0  0
   -4.3190   -0.1446    1.1814 N   0  0  0  0  0  0  0  0  0  0  0  0
   -3.1119    0.5610    1.4273 C   0  0  0  0  0  0  0  0  0  0  0  0
   -2.4303    1.1559    0.2504 C   0  0  0  0  0  0  0  0  0  0  0  0
   -2.9496    0.6770   -1.0896 C   0  0  0  0  0  0  0  0  0  0  0  0
   -0.9455    0.7515    0.2777 C   0  0  0  0  0  0  0  0  0  0  0  0
    1.7615   -0.6887    0.0044 C   0  0  0  0  0  0  0  0  0  0  0  0
    2.1048    0.5844    0.3406 C   0  0  0  0  0  0  0  0  0  0  0  0
    3.5158    0.5915    0.3824 C   0  0  0  0  0  0  0  0  0  0  0  0
    4.4276    1.5685    0.6588 C   0  0  0  0  0  0  0  0  0  0  0  0
    5.7911    1.3121    0.6317 C   0  0  0  0  0  0  0  0  0  0  0  0
    6.2075    0.0322    0.3154 C   0  0  0  0  0  0  0  0  0  0  0  0
    5.3002   -0.9590    0.0356 C   0  0  0  0  0  0  0  0  0  0  0  0
    3.9388   -0.6736    0.0701 C   0  0  0  0  0  0  0  0  0  0  0  0
    2.8888   -1.4089   -0.1482 O   0  0  0  0  0  0  0  0  0  0  0  0
   -2.2213   -1.9641    0.6564 H   0  0  0  0  0  0  0  0  0  0  0  0
   -1.6243   -2.3257   -0.9686 H   0  0  0  0  0  0  0  0  0  0  0  0
   -3.3910   -1.2439   -1.8774 H   0  0  0  0  0  0  0  0  0  0  0  0
   -4.5834   -2.0012    0.2278 H   0  0  0  0  0  0  0  0  0  0  0  0
   -5.2596   -0.5625   -0.6037 H   0  0  0  0  0  0  0  0  0  0  0  0
   -5.1850    0.2982    1.4924 H   0  0  0  0  0  0  0  0  0  0  0  0
   -3.3899    1.4202    2.1148 H   0  0  0  0  0  0  0  0  0  0  0  0
   -2.4321   -0.0638    2.0779 H   0  0  0  0  0  0  0  0  0  0  0  0
   -2.4097    2.2704    0.2614 H   0  0  0  0  0  0  0  0  0  0  0  0
   -3.9440    1.1183   -1.2710 H   0  0  0  0  0  0  0  0  0  0  0  0
   -2.2137    0.8753   -1.8745 H   0  0  0  0  0  0  0  0  0  0  0  0
   -0.5887    1.0044    1.2824 H   0  0  0  0  0  0  0  0  0  0  0  0
   -0.4722    1.3668   -0.5391 H   0  0  0  0  0  0  0  0  0  0  0  0
    1.5343    1.4646    0.5513 H   0  0  0  0  0  0  0  0  0  0  0  0
    4.0610    2.5572    0.9019 H   0  0  0  0  0  0  0  0  0  0  0  0
    6.4457    2.1212    0.8577 H   0  0  0  0  0  0  0  0  0  0  0  0
    7.2813   -0.1503    0.2990 H   0  0  0  0  0  0  0  0  0  0  0  0
    5.6694   -1.9397   -0.2054 H   0  0  0  0  0  0  0  0  0  0  0  0
  1  2  2  0
  2  3  1  0
  3  4  1  0
  4  5  1  0
  5  6  1  0
  6  7  1  0
  7  8  1  0
  8  9  1  0
  9 10  1  0
  9 11  1  0
  2 12  1  0
 12 13  2  0
 13 14  1  0
 14 15  2  0
 15 16  1  0
 16 17  2  0
 17 18  1  0
 18 19  2  0
 19 20  1  0
 11  3  1  0
 20 12  1  0
 10  5  1  0
 19 14  1  0
  4 21  1  0
  4 22  1  0
  5 23  1  0
  6 24  1  0
  6 25  1  0
  7 26  1  0
  8 27  1  0
  8 28  1  0
  9 29  1  0
 10 30  1  0
 10 31  1  0
 11 32  1  0
 11 33  1  0
 13 34  1  0
 15 35  1  0
 16 36  1  0
 17 37  1  0
 18 38  1  0
M  END
$$$$
[H]Oc1c([H])c(N2C([H])([H])C([H])([H])N([H])C([H])([H])C2([H])[H])nc2c([H])c(OC([H])([H])[H])c(-c3oc([H])nc3[H])c([H])c12
     RDKit          3D

 42 45  0  0  0  0  0  0  0  0999 V2000
    3.1962    3.5556    0.2567 C   0  0  0  0  0  0  0  0  0  0  0  0
    3.6258    2.2041    0.3589 O   0  0  0  0  0  0  0  0  0  0  0  0
    2.7171    1.1564    0.2580 C   0  0  0  0  0  0  0  0  0  0  0  0
    1.3614    1.3779    0.0548 C   0  0  0  0  0  0  0  0  0  0  0  0
    0.4812    0.3289   -0.0419 C   0  0  0  0  0  0  0  0  0  0  0  0
   -0.8416    0.5209   -0.2394 N   0  0  0  0  0  0  0  0  0  0  0  0
   -1.7217   -0.4828   -0.3374 C   0  0  0  0  0  0  0  0  0  0  0  0
   -1.2569   -1.7735   -0.2319 C   0  0  0  0  0  0  0  0  0  0  0  0
    0.0830   -2.0735   -0.0287 C   0  0  0  0  0  0  0  0  0  0  0  0
    0.5309   -3.3578    0.0742 O   0  0  0  0  0  0  0  0  0  0  0  0
    0.9438   -0.9835    0.0640 C   0  0  0  0  0  0  0  0  0  0  0  0
    2.3020   -1.1558    0.2661 C   0  0  0  0  0  0  0  0  0  0  0  0
    3.2133   -0.1265    0.3679 C   0  0  0  0  0  0  0  0  0  0  0  0
    4.6352   -0.3618    0.5811 C   0  0  0  0  0  0  0  0  0  0  0  0
    5.2469   -1.5912    0.7061 C   0  0  0  0  0  0  0  0  0  0  0  0
    6.5625   -1.3883    0.8910 N   0  0  0  0  0  0  0  0  0  0  0  0
    6.7672   -0.0648    0.8816 C   0  0  0  0  0  0  0  0  0  0  0  0
    5.6065    0.5046    0.6965 O   0  0  0  0  0  0  0  0  0  0  0  0
   -3.1094   -0.2730   -0.5449 N   0  0  0  0  0  0  0  0  0  0  0  0
   -4.0429   -1.3732   -0.6468 C   0  0  0  0  0  0  0  0  0  0  0  0
   -5.4709   -0.8630   -0.6779 C   0  0  0  0  0  0  0  0  0  0  0  0
   -5.6209    0.0855    0.3940 N   0  0  0  0  0  0  0  0  0  0  0  0
   -4.8637    1.2796    0.1725 C   0  0  0  0  0  0  0  0  0  0  0  0
   -3.6234    1.0713   -0.6602 C   0  0  0  0  0  0  0  0  0  0  0  0
    2.8261    3.7966   -0.7677 H   0  0  0  0  0  0  0  0  0  0  0  0
    4.0864    4.2038    0.4429 H   0  0  0  0  0  0  0  0  0  0  0  0
    2.4490    3.7280    1.0413 H   0  0  0  0  0  0  0  0  0  0  0  0
    1.0057    2.3925   -0.0267 H   0  0  0  0  0  0  0  0  0  0  0  0
   -1.9334   -2.6187   -0.3050 H   0  0  0  0  0  0  0  0  0  0  0  0
    1.4714   -3.6322    0.2187 H   0  0  0  0  0  0  0  0  0  0  0  0
    2.7084   -2.1469    0.3543 H   0  0  0  0  0  0  0  0  0  0  0  0
    4.7310   -2.5520    0.6596 H   0  0  0  0  0  0  0  0  0  0  0  0
    7.7465    0.3721    1.0108 H   0  0  0  0  0  0  0  0  0  0  0  0
   -3.8147   -2.0452   -1.4809 H   0  0  0  0  0  0  0  0  0  0  0  0
   -3.9449   -1.9488    0.3165 H   0  0  0  0  0  0  0  0  0  0  0  0
   -6.1341   -1.7196   -0.5166 H   0  0  0  0  0  0  0  0  0  0  0  0
   -5.7335   -0.4293   -1.6634 H   0  0  0  0  0  0  0  0  0  0  0  0
   -5.3475   -0.4064    1.2769 H   0  0  0  0  0  0  0  0  0  0  0  0
   -4.5394    1.6551    1.1652 H   0  0  0  0  0  0  0  0  0  0  0  0
   -5.5397    2.0468   -0.2670 H   0  0  0  0  0  0  0  0  0  0  0  0
   -2.8488    1.7805   -0.3056 H   0  0  0  0  0  0  0  0  0  0  0  0
   -3.9102    1.3078   -1.7095 H   0  0  0  0  0  0  0  0  0  0  0  0
  1  2  1  0
  2  3  1  0
  3  4  2  0
  4  5  1  0
  5  6  2  0
  6  7  1  0
  7  8  2  0
  8  9  1  0
  9 10  1  0
  9 11  2  0
 11 12  1  0
 12 13  2  0
 13 14  1  0
 14 15  2  0
 15 16  1  0
 16 17  2  0
 17 18  1  0
  7 19  1  0
 19 20  1  0
 20 21  1  0
 21 22  1  0
 22 23  1  0
 23 24  1  0
 13  3  1  0
 18 14  1  0
 24 19  1  0
 11  5  1  0
  1 25  1  0
  1 26  1  0
  1 27  1  0
  4 28  1  0
  8 29  1  0
 10 30  1  0
 12 31  1  0
 15 32  1  0
 17 33  1  0
 20 34  1  0
 20 35  1  0
 21 36  1  0
 21 37  1  0
 22 38  1  0
 23 39  1  0
 23 40  1  0
 24 41  1  0
 24 42  1  0
M  END
$$$$
[H]c1c([H])c(C(=O)N([H])C2([H])C([H])([H])C2([H])[H])c([H])c(C([H])([H])N2C([H])([H])C([H])([H])N(c3nc([H])c4c([H])c([H])c(-c5c(C#N)nn([H])c5[H])c([H])c4c3[H])C([H])([H])C2([H])[H])c1[H]
     RDKit          3D

 63 68  0  0  0  0  0  0  0  0999 V2000
    2.3573   -0.7955   -1.6867 C   0  0  0  0  0  0  0  0  0  0  0  0
    1.0849   -1.2433   -1.2482 N   0  0  0  0  0  0  0  0  0  0  0  0
    0.5288   -0.5933   -0.1194 C   0  0  0  0  0  0  0  0  0  0  0  0
   -0.6163    0.3349   -0.4256 C   0  0  0  0  0  0  0  0  0  0  0  0
   -1.4237   -0.0912   -1.5181 N   0  0  0  0  0  0  0  0  0  0  0  0
   -2.8367   -0.1018   -1.5358 C   0  0  0  0  0  0  0  0  0  0  0  0
   -3.6058    0.3364   -0.5030 C   0  0  0  0  0  0  0  0  0  0  0  0
   -4.9805    0.2987   -0.5774 C   0  0  0  0  0  0  0  0  0  0  0  0
   -5.7336    0.7587    0.5063 C   0  0  0  0  0  0  0  0  0  0  0  0
   -7.1123    0.7375    0.4703 C   0  0  0  0  0  0  0  0  0  0  0  0
   -7.8960    1.2153    1.5935 C   0  0  0  0  0  0  0  0  0  0  0  0
   -7.6882    0.9468    2.9262 C   0  0  0  0  0  0  0  0  0  0  0  0
   -6.6632    0.1418    3.5224 C   0  0  0  0  0  0  0  0  0  0  0  0
   -5.8235   -0.4927    3.9987 N   0  0  0  0  0  0  0  0  0  0  0  0
   -8.6530    1.5936    3.6387 N   0  0  0  0  0  0  0  0  0  0  0  0
   -9.4508    2.2514    2.8150 N   0  0  0  0  0  0  0  0  0  0  0  0
   -9.0010    2.0315    1.5443 C   0  0  0  0  0  0  0  0  0  0  0  0
   -7.6992    0.2401   -0.6875 C   0  0  0  0  0  0  0  0  0  0  0  0
   -6.9681   -0.2167   -1.7634 C   0  0  0  0  0  0  0  0  0  0  0  0
   -5.5880   -0.1895   -1.7138 C   0  0  0  0  0  0  0  0  0  0  0  0
   -4.8089   -0.6334   -2.7602 C   0  0  0  0  0  0  0  0  0  0  0  0
   -3.4774   -0.5697   -2.6244 N   0  0  0  0  0  0  0  0  0  0  0  0
   -0.6849   -0.5487   -2.7061 C   0  0  0  0  0  0  0  0  0  0  0  0
    0.1777   -1.6896   -2.2374 C   0  0  0  0  0  0  0  0  0  0  0  0
    3.4028   -0.9812   -0.6303 C   0  0  0  0  0  0  0  0  0  0  0  0
    4.5489   -0.2274   -0.6514 C   0  0  0  0  0  0  0  0  0  0  0  0
    5.5420   -0.3879    0.3218 C   0  0  0  0  0  0  0  0  0  0  0  0
    6.7464    0.4476    0.2461 C   0  0  0  0  0  0  0  0  0  0  0  0
    7.8096    0.3402    1.1448 N   0  0  0  0  0  0  0  0  0  0  0  0
    9.0077    1.1531    1.0893 C   0  0  0  0  0  0  0  0  0  0  0  0
   10.2873    0.2978    1.2342 C   0  0  0  0  0  0  0  0  0  0  0  0
    9.9006    1.3274    2.2339 C   0  0  0  0  0  0  0  0  0  0  0  0
    6.8423    1.3185   -0.6794 O   0  0  0  0  0  0  0  0  0  0  0  0
    5.3577   -1.3210    1.3148 C   0  0  0  0  0  0  0  0  0  0  0  0
    4.1903   -2.0806    1.3261 C   0  0  0  0  0  0  0  0  0  0  0  0
    3.2216   -1.9160    0.3667 C   0  0  0  0  0  0  0  0  0  0  0  0
    2.3680    0.2827   -1.9640 H   0  0  0  0  0  0  0  0  0  0  0  0
    2.6665   -1.3646   -2.5650 H   0  0  0  0  0  0  0  0  0  0  0  0
    0.2124   -1.3719    0.6274 H   0  0  0  0  0  0  0  0  0  0  0  0
    1.3157    0.0035    0.3861 H   0  0  0  0  0  0  0  0  0  0  0  0
   -1.1713    0.4920    0.5200 H   0  0  0  0  0  0  0  0  0  0  0  0
   -0.1944    1.3447   -0.6948 H   0  0  0  0  0  0  0  0  0  0  0  0
   -3.1717    0.7217    0.3927 H   0  0  0  0  0  0  0  0  0  0  0  0
   -5.2365    1.1335    1.3786 H   0  0  0  0  0  0  0  0  0  0  0  0
  -10.2649    2.8226    3.1248 H   0  0  0  0  0  0  0  0  0  0  0  0
   -9.4803    2.4589    0.6778 H   0  0  0  0  0  0  0  0  0  0  0  0
   -8.7736    0.2199   -0.7239 H   0  0  0  0  0  0  0  0  0  0  0  0
   -7.4146   -0.6044   -2.6659 H   0  0  0  0  0  0  0  0  0  0  0  0
   -5.2877   -1.0218   -3.6644 H   0  0  0  0  0  0  0  0  0  0  0  0
   -0.0813    0.3094   -3.0379 H   0  0  0  0  0  0  0  0  0  0  0  0
   -1.4111   -0.8659   -3.4911 H   0  0  0  0  0  0  0  0  0  0  0  0
    0.7728   -2.0356   -3.1220 H   0  0  0  0  0  0  0  0  0  0  0  0
   -0.4710   -2.5082   -1.8816 H   0  0  0  0  0  0  0  0  0  0  0  0
    4.6708    0.5081   -1.4524 H   0  0  0  0  0  0  0  0  0  0  0  0
    7.7728   -0.3580    1.9160 H   0  0  0  0  0  0  0  0  0  0  0  0
    9.0239    1.9003    0.2621 H   0  0  0  0  0  0  0  0  0  0  0  0
   11.0927    0.5282    0.4965 H   0  0  0  0  0  0  0  0  0  0  0  0
   10.1890   -0.7719    1.4425 H   0  0  0  0  0  0  0  0  0  0  0  0
    9.6020    1.0291    3.2628 H   0  0  0  0  0  0  0  0  0  0  0  0
   10.5366    2.2431    2.2419 H   0  0  0  0  0  0  0  0  0  0  0  0
    6.1098   -1.4591    2.0730 H   0  0  0  0  0  0  0  0  0  0  0  0
    4.0312   -2.8142    2.0959 H   0  0  0  0  0  0  0  0  0  0  0  0
    2.2997   -2.5142    0.3661 H   0  0  0  0  0  0  0  0  0  0  0  0
  1  2  1  0
  2  3  1  0
  3  4  1  0
  4  5  1  0
  5  6  1  0
  6  7  2  0
  7  8  1  0
  8  9  2  0
  9 10  1  0
 10 11  1  0
 11 12  1  0
 12 13  1  0
 13 14  3  0
 12 15  2  0
 15 16  1  0
 16 17  1  0
 10 18  2  0
 18 19  1  0
 19 20  2  0
 20 21  1  0
 21 22  2  0
  5 23  1  0
 23 24  1  0
  1 25  1  0
 25 26  2  0
 26 27  1  0
 27 28  1  0
 28 29  1  0
 29 30  1  0
 30 31  1  0
 31 32  1  0
 28 33  2  0
 27 34  2  0
 34 35  1  0
 35 36  2  0
 24  2  1  0
 36 25  1  0
 22  6  1  0
 32 30  1  0
 20  8  1  0
 17 11  2  0
  1 37  1  0
  1 38  1  0
  3 39  1  0
  3 40  1  0
  4 41  1  0
  4 42  1  0
  7 43  1  0
  9 44  1  0
 16 45  1  0
 17 46  1  0
 18 47  1  0
 19 48  1  0
 21 49  1  0
 23 50  1  0
 23 51  1  0
 24 52  1  0
 24 53  1  0
 26 54  1  0
 29 55  1  0
 30 56  1  0
 31 57  1  0
 31 58  1  0
 32 59  1  0
 32 60  1  0
 34 61  1  0
 35 62  1  0
 36 63  1  0
M  END
$$$$
[H]OC(=O)[C@]1([H])O[C@@]([H])(n2c([H])nc3c(N([H])[H])nc([H])nc32)[C@]([H])(O[H])[C@]1([H])O[H]
     RDKit          3D

 31 33  0  0  0  0  0  0  0  0999 V2000
   -4.0527    2.1981    0.6858 O   0  0  0  0  0  0  0  0  0  0  0  0
   -2.9901    1.9189   -0.1730 C   0  0  0  0  0  0  0  0  0  0  0  0
   -2.8183    2.6617   -1.1809 O   0  0  0  0  0  0  0  0  0  0  0  0
   -2.1322    0.7745    0.1474 C   0  0  2  0  0  0  0  0  0  0  0  0
   -1.1146    0.5913   -0.7679 O   0  0  0  0  0  0  0  0  0  0  0  0
   -0.6649   -0.7033   -0.6640 C   0  0  2  0  0  0  0  0  0  0  0  0
   -1.6891   -1.4958    0.1013 C   0  0  2  0  0  0  0  0  0  0  0  0
   -1.9733   -2.7166   -0.5084 O   0  0  0  0  0  0  0  0  0  0  0  0
   -2.8806   -0.5598    0.0257 C   0  0  2  0  0  0  0  0  0  0  0  0
   -3.4371   -0.6629   -1.2473 O   0  0  0  0  0  0  0  0  0  0  0  0
    0.6256   -0.6958    0.0054 N   0  0  0  0  0  0  0  0  0  0  0  0
    1.0458   -1.4066    1.0450 C   0  0  0  0  0  0  0  0  0  0  0  0
    2.3253   -1.0483    1.3046 N   0  0  0  0  0  0  0  0  0  0  0  0
    2.7103   -0.1074    0.4230 C   0  0  0  0  0  0  0  0  0  0  0  0
    3.8755    0.5896    0.2323 C   0  0  0  0  0  0  0  0  0  0  0  0
    4.9932    0.3478    1.0981 N   0  0  0  0  0  0  0  0  0  0  0  0
    3.9473    1.4791   -0.7546 N   0  0  0  0  0  0  0  0  0  0  0  0
    2.8884    1.6922   -1.5564 C   0  0  0  0  0  0  0  0  0  0  0  0
    1.7536    1.0213   -1.3799 N   0  0  0  0  0  0  0  0  0  0  0  0
    1.6301    0.1160   -0.4020 C   0  0  0  0  0  0  0  0  0  0  0  0
   -3.8548    2.5152    1.6477 H   0  0  0  0  0  0  0  0  0  0  0  0
   -1.6885    0.8324    1.1460 H   0  0  0  0  0  0  0  0  0  0  0  0
   -0.5735   -1.1720   -1.6734 H   0  0  0  0  0  0  0  0  0  0  0  0
   -1.4508   -1.6178    1.1703 H   0  0  0  0  0  0  0  0  0  0  0  0
   -2.1923   -3.3507    0.2371 H   0  0  0  0  0  0  0  0  0  0  0  0
   -3.5985   -0.6964    0.8301 H   0  0  0  0  0  0  0  0  0  0  0  0
   -2.9100   -1.2665   -1.8318 H   0  0  0  0  0  0  0  0  0  0  0  0
    0.4748   -2.1423    1.5924 H   0  0  0  0  0  0  0  0  0  0  0  0
    5.5758    1.1285    1.4625 H   0  0  0  0  0  0  0  0  0  0  0  0
    5.1725   -0.6528    1.3293 H   0  0  0  0  0  0  0  0  0  0  0  0
    3.0034    2.4285   -2.3442 H   0  0  0  0  0  0  0  0  0  0  0  0
  1  2  1  0
  2  3  2  0
  2  4  1  0
  4  5  1  0
  5  6  1  0
  6  7  1  0
  7  8  1  0
  7  9  1  0
  9 10  1  0
  6 11  1  0
 11 12  1  0
 12 13  2  0
 13 14  1  0
 14 15  2  0
 15 16  1  0
 15 17  1  0
 17 18  2  0
 18 19  1  0
 19 20  2  0
  9  4  1  0
 20 11  1  0
 20 14  1  0
  1 21  1  0
  4 22  1  1
  6 23  1  6
  7 24  1  1
  8 25  1  0
  9 26  1  1
 10 27  1  0
 12 28  1  0
 16 29  1  0
 16 30  1  0
 18 31  1  0
M  END
$$$$
[H]Oc1c([H])c([H])c(/C([H])=C(\[H])C(=O)N([H])c2c([H])c([H])c(S(=O)(=O)N([H])[H])c([H])c2[H])c([H])c1[H]
     RDKit          3D

 36 37  0  0  0  0  0  0  0  0999 V2000
    7.2711    0.3150   -1.1886 N   0  0  0  0  0  0  0  0  0  0  0  0
    6.6233   -0.7865   -0.0235 S   0  0  0  0  0  0  0  0  0  0  0  0
    6.9202   -2.2194   -0.4236 O   0  0  0  0  0  0  0  0  0  0  0  0
    7.2967   -0.5921    1.3193 O   0  0  0  0  0  0  0  0  0  0  0  0
    4.9041   -0.5430    0.1817 C   0  0  0  0  0  0  0  0  0  0  0  0
    3.9708   -1.2095   -0.5756 C   0  0  0  0  0  0  0  0  0  0  0  0
    2.5883   -1.0138   -0.4108 C   0  0  0  0  0  0  0  0  0  0  0  0
    2.1307   -0.1371    0.5257 C   0  0  0  0  0  0  0  0  0  0  0  0
    0.7592    0.1090    0.7175 N   0  0  0  0  0  0  0  0  0  0  0  0
   -0.2545   -0.1963   -0.1869 C   0  0  0  0  0  0  0  0  0  0  0  0
   -0.0762   -0.7226   -1.2901 O   0  0  0  0  0  0  0  0  0  0  0  0
   -1.6602    0.1305    0.1916 C   0  0  0  0  0  0  0  0  0  0  0  0
   -2.6539   -0.1348   -0.6207 C   0  0  0  0  0  0  0  0  0  0  0  0
   -4.0284    0.1671   -0.2891 C   0  0  0  0  0  0  0  0  0  0  0  0
   -4.4384    0.7514    0.8855 C   0  0  0  0  0  0  0  0  0  0  0  0
   -5.7781    1.0187    1.1501 C   0  0  0  0  0  0  0  0  0  0  0  0
   -6.7549    0.7023    0.2305 C   0  0  0  0  0  0  0  0  0  0  0  0
   -8.0953    0.9669    0.4893 O   0  0  0  0  0  0  0  0  0  0  0  0
   -6.3570    0.1168   -0.9496 C   0  0  0  0  0  0  0  0  0  0  0  0
   -5.0327   -0.1514   -1.2199 C   0  0  0  0  0  0  0  0  0  0  0  0
    3.0714    0.5505    1.3068 C   0  0  0  0  0  0  0  0  0  0  0  0
    4.3998    0.3362    1.1203 C   0  0  0  0  0  0  0  0  0  0  0  0
    6.7537    0.1664   -2.0769 H   0  0  0  0  0  0  0  0  0  0  0  0
    8.2883    0.0817   -1.2764 H   0  0  0  0  0  0  0  0  0  0  0  0
    4.3474   -1.9087   -1.3230 H   0  0  0  0  0  0  0  0  0  0  0  0
    1.9689   -1.6207   -1.0691 H   0  0  0  0  0  0  0  0  0  0  0  0
    0.4368    0.5694    1.6300 H   0  0  0  0  0  0  0  0  0  0  0  0
   -1.8654    0.5876    1.1381 H   0  0  0  0  0  0  0  0  0  0  0  0
   -2.4316   -0.5986   -1.5776 H   0  0  0  0  0  0  0  0  0  0  0  0
   -3.7270    1.0224    1.6437 H   0  0  0  0  0  0  0  0  0  0  0  0
   -6.0400    1.4826    2.0978 H   0  0  0  0  0  0  0  0  0  0  0  0
   -8.4195    1.3930    1.3397 H   0  0  0  0  0  0  0  0  0  0  0  0
   -7.1175   -0.1346   -1.6767 H   0  0  0  0  0  0  0  0  0  0  0  0
   -4.7955   -0.6097   -2.1612 H   0  0  0  0  0  0  0  0  0  0  0  0
    2.6671    1.2433    2.0462 H   0  0  0  0  0  0  0  0  0  0  0  0
    5.1283    0.8685    1.7250 H   0  0  0  0  0  0  0  0  0  0  0  0
  1  2  1  0
  2  3  2  0
  2  4  2  0
  2  5  1  0
  5  6  2  0
  6  7  1  0
  7  8  2  0
  8  9  1  0
  9 10  1  0
 10 11  2  0
 10 12  1  0
 12 13  2  0
 13 14  1  0
 14 15  2  0
 15 16  1  0
 16 17  2  0
 17 18  1  0
 17 19  1  0
 19 20  2  0
  8 21  1  0
 21 22  2  0
 22  5  1  0
 20 14  1  0
  1 23  1  0
  1 24  1  0
  6 25  1  0
  7 26  1  0
  9 27  1  0
 12 28  1  0
 13 29  1  0
 15 30  1  0
 16 31  1  0
 18 32  1  0
 19 33  1  0
 20 34  1  0
 21 35  1  0
 22 36  1  0
M  END
$$$$
[H]N=C(c1c([H])c([H])c([H])c(OC([H])([H])C([H])([H])N2C([H])([H])C([H])([H])C([H])(N([H])S(=O)(=O)c3nc4c([H])c([H])c([H])c([H])c4c([H])c3O[H])C([H])([H])C2([H])[H])c1[H])N([H])[H]
     RDKit          3D

 60 63  0  0  0  0  0  0  0  0999 V2000
   -5.0483   -0.5616   -2.5015 C   0  0  0  0  0  0  0  0  0  0  0  0
   -3.8130   -1.1008   -2.1819 O   0  0  0  0  0  0  0  0  0  0  0  0
   -2.9582   -0.3867   -1.3094 C   0  0  0  0  0  0  0  0  0  0  0  0
   -1.7012   -1.2062   -1.1470 C   0  0  0  0  0  0  0  0  0  0  0  0
   -0.7095   -0.6627   -0.3078 N   0  0  0  0  0  0  0  0  0  0  0  0
   -0.9767   -0.5721    1.0802 C   0  0  0  0  0  0  0  0  0  0  0  0
   -0.0308    0.4453    1.6884 C   0  0  0  0  0  0  0  0  0  0  0  0
    1.3712   -0.0566    1.3859 C   0  0  0  0  0  0  0  0  0  0  0  0
    1.5503   -1.3985    1.8309 N   0  0  0  0  0  0  0  0  0  0  0  0
    2.7672   -1.6122    3.0173 S   0  0  0  0  0  0  0  0  0  0  0  0
    2.8756   -3.0850    3.3423 O   0  0  0  0  0  0  0  0  0  0  0  0
    4.2941   -1.1219    2.3261 C   0  0  0  0  0  0  0  0  0  0  0  0
    5.0645   -2.0635    1.6608 C   0  0  0  0  0  0  0  0  0  0  0  0
    4.6145   -3.3705    1.5527 O   0  0  0  0  0  0  0  0  0  0  0  0
    6.2787   -1.7363    1.0968 C   0  0  0  0  0  0  0  0  0  0  0  0
    6.6847   -0.4273    1.2292 C   0  0  0  0  0  0  0  0  0  0  0  0
    7.8921   -0.0403    0.6854 C   0  0  0  0  0  0  0  0  0  0  0  0
    8.3453    1.2567    0.7900 C   0  0  0  0  0  0  0  0  0  0  0  0
    7.5676    2.1851    1.4558 C   0  0  0  0  0  0  0  0  0  0  0  0
    6.3450    1.8034    2.0090 C   0  0  0  0  0  0  0  0  0  0  0  0
    5.9061    0.5117    1.8981 C   0  0  0  0  0  0  0  0  0  0  0  0
    4.7192    0.1424    2.4362 N   0  0  0  0  0  0  0  0  0  0  0  0
    2.4705   -0.8321    4.2651 O   0  0  0  0  0  0  0  0  0  0  0  0
    1.5696   -0.0028   -0.1068 C   0  0  0  0  0  0  0  0  0  0  0  0
    0.2499    0.2123   -0.8589 C   0  0  0  0  0  0  0  0  0  0  0  0
   -5.4763    0.6643   -1.9896 C   0  0  0  0  0  0  0  0  0  0  0  0
   -6.6916    1.1862   -2.3096 C   0  0  0  0  0  0  0  0  0  0  0  0
   -7.1238    2.4741   -1.7639 C   0  0  0  0  0  0  0  0  0  0  0  0
   -8.3920    3.0171   -2.1030 N   0  0  0  0  0  0  0  0  0  0  0  0
   -6.3933    3.1535   -0.9740 N   0  0  0  0  0  0  0  0  0  0  0  0
   -7.5622    0.5159   -3.1646 C   0  0  0  0  0  0  0  0  0  0  0  0
   -7.1597   -0.6902   -3.6779 C   0  0  0  0  0  0  0  0  0  0  0  0
   -5.9298   -1.2118   -3.3502 C   0  0  0  0  0  0  0  0  0  0  0  0
   -2.7727    0.6434   -1.6065 H   0  0  0  0  0  0  0  0  0  0  0  0
   -3.4864   -0.3459   -0.3254 H   0  0  0  0  0  0  0  0  0  0  0  0
   -1.2380   -1.4520   -2.1319 H   0  0  0  0  0  0  0  0  0  0  0  0
   -2.0084   -2.2057   -0.7228 H   0  0  0  0  0  0  0  0  0  0  0  0
   -2.0039   -0.2706    1.3533 H   0  0  0  0  0  0  0  0  0  0  0  0
   -0.7495   -1.5853    1.5283 H   0  0  0  0  0  0  0  0  0  0  0  0
   -0.2025    0.6052    2.7521 H   0  0  0  0  0  0  0  0  0  0  0  0
   -0.1747    1.4036    1.1614 H   0  0  0  0  0  0  0  0  0  0  0  0
    2.0771    0.6635    1.8955 H   0  0  0  0  0  0  0  0  0  0  0  0
    1.7424   -2.0139    1.0157 H   0  0  0  0  0  0  0  0  0  0  0  0
    5.1245   -4.0969    1.0822 H   0  0  0  0  0  0  0  0  0  0  0  0
    6.9283   -2.4113    0.5675 H   0  0  0  0  0  0  0  0  0  0  0  0
    8.5117   -0.7753    0.1560 H   0  0  0  0  0  0  0  0  0  0  0  0
    9.2840    1.5915    0.3771 H   0  0  0  0  0  0  0  0  0  0  0  0
    7.8741    3.2135    1.5673 H   0  0  0  0  0  0  0  0  0  0  0  0
    5.7457    2.5232    2.5223 H   0  0  0  0  0  0  0  0  0  0  0  0
    1.9673   -0.9726   -0.5080 H   0  0  0  0  0  0  0  0  0  0  0  0
    2.2498    0.7954   -0.4387 H   0  0  0  0  0  0  0  0  0  0  0  0
    0.4550   -0.0662   -1.9108 H   0  0  0  0  0  0  0  0  0  0  0  0
   -0.0163    1.2869   -0.8666 H   0  0  0  0  0  0  0  0  0  0  0  0
   -4.7667    1.1451   -1.3314 H   0  0  0  0  0  0  0  0  0  0  0  0
   -8.9740    3.4597   -1.3804 H   0  0  0  0  0  0  0  0  0  0  0  0
   -8.7433    2.9735   -3.0775 H   0  0  0  0  0  0  0  0  0  0  0  0
   -5.4651    2.9058   -0.6359 H   0  0  0  0  0  0  0  0  0  0  0  0
   -8.5393    0.9398   -3.4198 H   0  0  0  0  0  0  0  0  0  0  0  0
   -7.8258   -1.2199   -4.3422 H   0  0  0  0  0  0  0  0  0  0  0  0
   -5.5932   -2.1631   -3.7452 H   0  0  0  0  0  0  0  0  0  0  0  0
  1  2  1  0
  2  3  1  0
  3  4  1  0
  4  5  1  0
  5  6  1  0
  6  7  1  0
  7  8  1  0
  8  9  1  0
  9 10  1  0
 10 11  2  0
 10 12  1  0
 12 13  2  0
 13 14  1  0
 13 15  1  0
 15 16  2  0
 16 17  1  0
 17 18  2  0
 18 19  1  0
 19 20  2  0
 20 21  1  0
 21 22  2  0
 10 23  2  0
  8 24  1  0
 24 25  1  0
  1 26  2  0
 26 27  1  0
 27 28  1  0
 28 29  1  0
 28 30  2  3
 27 31  2  0
 31 32  1  0
 32 33  2  0
 33  1  1  0
 25  5  1  0
 22 12  1  0
 21 16  1  0
  3 34  1  0
  3 35  1  0
  4 36  1  0
  4 37  1  0
  6 38  1  0
  6 39  1  0
  7 40  1  0
  7 41  1  0
  8 42  1  0
  9 43  1  0
 14 44  1  0
 15 45  1  0
 17 46  1  0
 18 47  1  0
 19 48  1  0
 20 49  1  0
 24 50  1  0
 24 51  1  0
 25 52  1  0
 25 53  1  0
 26 54  1  0
 29 55  1  0
 29 56  1  0
 30 57  1  0
 31 58  1  0
 32 59  1  0
 33 60  1  0
M  END
$$$$
[H]OC(=O)[C@@]1([H])C([H])([H])N(c2c([H])c([H])c(-c3c([H])c([H])c(Cl)c([H])c3[H])c([H])c2[H])C([H])([H])C([H])([H])C1([H])[H]
     RDKit          3D

 40 42  0  0  0  0  0  0  0  0999 V2000
   -4.9000    2.1047   -1.0187 O   0  0  0  0  0  0  0  0  0  0  0  0
   -3.7876    1.2796   -1.0190 C   0  0  0  0  0  0  0  0  0  0  0  0
   -2.6432    1.7955   -1.0684 O   0  0  0  0  0  0  0  0  0  0  0  0
   -3.9751   -0.1842   -0.9618 C   0  0  2  0  0  0  0  0  0  0  0  0
   -4.7161   -0.6735    0.2361 C   0  0  0  0  0  0  0  0  0  0  0  0
   -3.8185   -1.1287    1.3425 C   0  0  0  0  0  0  0  0  0  0  0  0
   -2.5201   -0.3499    1.3586 C   0  0  0  0  0  0  0  0  0  0  0  0
   -1.8520   -0.5413    0.0896 N   0  0  0  0  0  0  0  0  0  0  0  0
   -2.6357   -0.8989   -1.0555 C   0  0  0  0  0  0  0  0  0  0  0  0
   -0.4349   -0.3699   -0.0062 C   0  0  0  0  0  0  0  0  0  0  0  0
    0.2864   -0.6944   -1.1213 C   0  0  0  0  0  0  0  0  0  0  0  0
    1.6622   -0.4995   -1.1596 C   0  0  0  0  0  0  0  0  0  0  0  0
    2.3044    0.0245   -0.0659 C   0  0  0  0  0  0  0  0  0  0  0  0
    1.5913    0.3550    1.0619 C   0  0  0  0  0  0  0  0  0  0  0  0
    0.2313    0.1598    1.0929 C   0  0  0  0  0  0  0  0  0  0  0  0
    3.7472    0.2307   -0.1010 C   0  0  0  0  0  0  0  0  0  0  0  0
    4.4961    0.1301    1.0393 C   0  0  0  0  0  0  0  0  0  0  0  0
    5.8732    0.3376    0.9444 C   0  0  0  0  0  0  0  0  0  0  0  0
    6.4699    0.6331   -0.2444 C   0  0  0  0  0  0  0  0  0  0  0  0
    8.2021    0.8954   -0.3710 Cl  0  0  0  0  0  0  0  0  0  0  0  0
    5.7140    0.7326   -1.3835 C   0  0  0  0  0  0  0  0  0  0  0  0
    4.3436    0.5289   -1.3048 C   0  0  0  0  0  0  0  0  0  0  0  0
   -4.8868    3.0436   -0.6467 H   0  0  0  0  0  0  0  0  0  0  0  0
   -4.5575   -0.4589   -1.8821 H   0  0  0  0  0  0  0  0  0  0  0  0
   -5.3204   -1.5744   -0.0769 H   0  0  0  0  0  0  0  0  0  0  0  0
   -5.4426    0.0892    0.5976 H   0  0  0  0  0  0  0  0  0  0  0  0
   -3.5481   -2.2038    1.2109 H   0  0  0  0  0  0  0  0  0  0  0  0
   -4.3253   -1.0378    2.3135 H   0  0  0  0  0  0  0  0  0  0  0  0
   -1.9055   -0.8379    2.1720 H   0  0  0  0  0  0  0  0  0  0  0  0
   -2.7199    0.6942    1.6019 H   0  0  0  0  0  0  0  0  0  0  0  0
   -2.8641   -1.9967   -1.0367 H   0  0  0  0  0  0  0  0  0  0  0  0
   -2.1355   -0.6194   -2.0126 H   0  0  0  0  0  0  0  0  0  0  0  0
   -0.2052   -1.1137   -1.9949 H   0  0  0  0  0  0  0  0  0  0  0  0
    2.2019   -0.7697   -2.0644 H   0  0  0  0  0  0  0  0  0  0  0  0
    2.0952    0.7740    1.9403 H   0  0  0  0  0  0  0  0  0  0  0  0
   -0.3312    0.4274    1.9960 H   0  0  0  0  0  0  0  0  0  0  0  0
    4.0077   -0.1040    1.9693 H   0  0  0  0  0  0  0  0  0  0  0  0
    6.4610    0.2582    1.8431 H   0  0  0  0  0  0  0  0  0  0  0  0
    6.1304    0.9621   -2.3447 H   0  0  0  0  0  0  0  0  0  0  0  0
    3.7072    0.6007   -2.1971 H   0  0  0  0  0  0  0  0  0  0  0  0
  1  2  1  0
  2  3  2  0
  2  4  1  0
  4  5  1  0
  5  6  1  0
  6  7  1  0
  7  8  1  0
  8  9  1  0
  8 10  1  0
 10 11  2  0
 11 12  1  0
 12 13  2  0
 13 14  1  0
 14 15  2  0
 13 16  1  0
 16 17  2  0
 17 18  1  0
 18 19  2  0
 19 20  1  0
 19 21  1  0
 21 22  2  0
  9  4  1  0
 15 10  1  0
 22 16  1  0
  1 23  1  0
  4 24  1  6
  5 25  1  0
  5 26  1  0
  6 27  1  0
  6 28  1  0
  7 29  1  0
  7 30  1  0
  9 31  1  0
  9 32  1  0
 11 33  1  0
 12 34  1  0
 14 35  1  0
 15 36  1  0
 17 37  1  0
 18 38  1  0
 21 39  1  0
 22 40  1  0
M  END
$$$$
[H]c1nc(N([H])c2c([H])c([H])c(N3C([H])([H])C([H])([H])C([H])(N4C([H])([H])C([H])([H])N(C([H])([H])C([H])([H])F)C([H])([H])C4([H])[H])C([H])([H])C3([H])[H])c([H])c2OC([H])([H])[H])nc(N([H])c2c([H])c([H])c([H])c([H])c2S(=O)(=O)C([H])(C([H])([H])[H])C([H])([H])[H])c1Cl
     RDKit          3D

 85 89  0  0  0  0  0  0  0  0999 V2000
   -2.3915   -1.1949   -4.7260 C   0  0  0  0  0  0  0  0  0  0  0  0
   -1.0946   -0.7400   -4.4668 O   0  0  0  0  0  0  0  0  0  0  0  0
   -0.5657   -0.7111   -3.1720 C   0  0  0  0  0  0  0  0  0  0  0  0
   -1.3711   -1.1505   -2.1533 C   0  0  0  0  0  0  0  0  0  0  0  0
   -0.9525   -1.1649   -0.8493 C   0  0  0  0  0  0  0  0  0  0  0  0
    0.3260   -0.7136   -0.6156 C   0  0  0  0  0  0  0  0  0  0  0  0
    1.1558   -0.2631   -1.6443 C   0  0  0  0  0  0  0  0  0  0  0  0
    0.7413   -0.2472   -2.9392 C   0  0  0  0  0  0  0  0  0  0  0  0
    1.4880    0.1929   -4.0272 N   0  0  0  0  0  0  0  0  0  0  0  0
    2.7714    0.7851   -4.1158 C   0  0  0  0  0  0  0  0  0  0  0  0
    3.1264    1.0839   -5.4227 N   0  0  0  0  0  0  0  0  0  0  0  0
    4.2991    1.6871   -5.6112 C   0  0  0  0  0  0  0  0  0  0  0  0
    5.1323    2.0074   -4.5768 C   0  0  0  0  0  0  0  0  0  0  0  0
    6.6867    2.8083   -4.8949 Cl  0  0  0  0  0  0  0  0  0  0  0  0
    4.7516    1.6949   -3.2695 C   0  0  0  0  0  0  0  0  0  0  0  0
    5.6195    2.1305   -2.2414 N   0  0  0  0  0  0  0  0  0  0  0  0
    5.5748    1.8950   -0.8657 C   0  0  0  0  0  0  0  0  0  0  0  0
    4.8906    0.8491   -0.2732 C   0  0  0  0  0  0  0  0  0  0  0  0
    4.9291    0.6530    1.0848 C   0  0  0  0  0  0  0  0  0  0  0  0
    5.6352    1.4605    1.9374 C   0  0  0  0  0  0  0  0  0  0  0  0
    6.3196    2.5088    1.3172 C   0  0  0  0  0  0  0  0  0  0  0  0
    6.3135    2.7482   -0.0256 C   0  0  0  0  0  0  0  0  0  0  0  0
    7.2225    4.0885   -0.7200 S   0  0  0  0  0  0  0  0  0  0  0  0
    6.3760    4.9913   -1.5520 O   0  0  0  0  0  0  0  0  0  0  0  0
    8.4298    3.5848   -1.4759 O   0  0  0  0  0  0  0  0  0  0  0  0
    7.8733    5.0491    0.6318 C   0  0  0  0  0  0  0  0  0  0  0  0
    8.6569    6.2193    0.0563 C   0  0  0  0  0  0  0  0  0  0  0  0
    6.7404    5.6886    1.4367 C   0  0  0  0  0  0  0  0  0  0  0  0
    3.5707    1.0886   -3.1086 N   0  0  0  0  0  0  0  0  0  0  0  0
   -1.8254   -1.5895    0.1806 N   0  0  0  0  0  0  0  0  0  0  0  0
   -2.9446   -0.7665    0.5150 C   0  0  0  0  0  0  0  0  0  0  0  0
   -4.1943   -1.4429    0.9193 C   0  0  0  0  0  0  0  0  0  0  0  0
   -4.0387   -2.9311    0.9301 C   0  0  0  0  0  0  0  0  0  0  0  0
   -2.7638   -3.3030    1.6294 C   0  0  0  0  0  0  0  0  0  0  0  0
   -1.5415   -2.8507    0.8446 C   0  0  0  0  0  0  0  0  0  0  0  0
   -5.1157   -3.5908    1.6440 N   0  0  0  0  0  0  0  0  0  0  0  0
   -6.4136   -3.4241    1.1163 C   0  0  0  0  0  0  0  0  0  0  0  0
   -7.2239   -2.4123    1.8581 C   0  0  0  0  0  0  0  0  0  0  0  0
   -7.0956   -2.5828    3.2672 N   0  0  0  0  0  0  0  0  0  0  0  0
   -8.2541   -2.2686    4.0287 C   0  0  0  0  0  0  0  0  0  0  0  0
   -8.6013   -0.7930    4.0380 C   0  0  0  0  0  0  0  0  0  0  0  0
   -8.8444   -0.3485    2.7509 F   0  0  0  0  0  0  0  0  0  0  0  0
   -6.3407   -3.7152    3.6947 C   0  0  0  0  0  0  0  0  0  0  0  0
   -4.9631   -3.6264    3.0518 C   0  0  0  0  0  0  0  0  0  0  0  0
   -3.1627   -0.5733   -4.2039 H   0  0  0  0  0  0  0  0  0  0  0  0
   -2.5428   -1.1771   -5.8235 H   0  0  0  0  0  0  0  0  0  0  0  0
   -2.4372   -2.2590   -4.4028 H   0  0  0  0  0  0  0  0  0  0  0  0
   -2.3847   -1.5006   -2.3957 H   0  0  0  0  0  0  0  0  0  0  0  0
    0.6682   -0.7237    0.4205 H   0  0  0  0  0  0  0  0  0  0  0  0
    2.1275    0.0738   -1.3676 H   0  0  0  0  0  0  0  0  0  0  0  0
    1.0007    0.0529   -4.9894 H   0  0  0  0  0  0  0  0  0  0  0  0
    4.6324    1.9481   -6.6399 H   0  0  0  0  0  0  0  0  0  0  0  0
    6.4433    2.7396   -2.5698 H   0  0  0  0  0  0  0  0  0  0  0  0
    4.3382    0.1593   -0.9117 H   0  0  0  0  0  0  0  0  0  0  0  0
    4.3730   -0.1794    1.5051 H   0  0  0  0  0  0  0  0  0  0  0  0
    5.6891    1.3375    3.0058 H   0  0  0  0  0  0  0  0  0  0  0  0
    6.8968    3.1562    1.9965 H   0  0  0  0  0  0  0  0  0  0  0  0
    8.5120    4.4509    1.3076 H   0  0  0  0  0  0  0  0  0  0  0  0
    9.2279    6.7219    0.8403 H   0  0  0  0  0  0  0  0  0  0  0  0
    9.2209    5.9225   -0.8373 H   0  0  0  0  0  0  0  0  0  0  0  0
    7.8585    6.9415   -0.2842 H   0  0  0  0  0  0  0  0  0  0  0  0
    6.9231    5.5867    2.5255 H   0  0  0  0  0  0  0  0  0  0  0  0
    5.7958    5.1274    1.2138 H   0  0  0  0  0  0  0  0  0  0  0  0
    6.5539    6.7373    1.1397 H   0  0  0  0  0  0  0  0  0  0  0  0
   -2.6278   -0.0957    1.3777 H   0  0  0  0  0  0  0  0  0  0  0  0
   -3.1701   -0.0910   -0.3655 H   0  0  0  0  0  0  0  0  0  0  0  0
   -5.0143   -1.1184    0.2151 H   0  0  0  0  0  0  0  0  0  0  0  0
   -4.5753   -1.0688    1.9175 H   0  0  0  0  0  0  0  0  0  0  0  0
   -3.9663   -3.3024   -0.1063 H   0  0  0  0  0  0  0  0  0  0  0  0
   -2.6787   -2.8526    2.6284 H   0  0  0  0  0  0  0  0  0  0  0  0
   -2.7283   -4.4050    1.7004 H   0  0  0  0  0  0  0  0  0  0  0  0
   -0.7088   -2.6814    1.5420 H   0  0  0  0  0  0  0  0  0  0  0  0
   -1.2217   -3.5778    0.0872 H   0  0  0  0  0  0  0  0  0  0  0  0
   -6.9541   -4.4094    1.2580 H   0  0  0  0  0  0  0  0  0  0  0  0
   -6.4220   -3.2599    0.0158 H   0  0  0  0  0  0  0  0  0  0  0  0
   -8.3256   -2.5439    1.6267 H   0  0  0  0  0  0  0  0  0  0  0  0
   -6.9309   -1.3570    1.5864 H   0  0  0  0  0  0  0  0  0  0  0  0
   -9.1230   -2.7809    3.5681 H   0  0  0  0  0  0  0  0  0  0  0  0
   -8.2142   -2.6014    5.0743 H   0  0  0  0  0  0  0  0  0  0  0  0
   -7.7828   -0.2112    4.4832 H   0  0  0  0  0  0  0  0  0  0  0  0
   -9.5566   -0.6274    4.6093 H   0  0  0  0  0  0  0  0  0  0  0  0
   -6.1515   -3.6122    4.7928 H   0  0  0  0  0  0  0  0  0  0  0  0
   -6.7739   -4.6959    3.5233 H   0  0  0  0  0  0  0  0  0  0  0  0
   -4.3974   -4.5229    3.3522 H   0  0  0  0  0  0  0  0  0  0  0  0
   -4.5050   -2.6691    3.3986 H   0  0  0  0  0  0  0  0  0  0  0  0
  1  2  1  0
  2  3  1  0
  3  4  2  0
  4  5  1  0
  5  6  2  0
  6  7  1  0
  7  8  2  0
  8  9  1  0
  9 10  1  0
 10 11  2  0
 11 12  1  0
 12 13  2  0
 13 14  1  0
 13 15  1  0
 15 16  1  0
 16 17  1  0
 17 18  2  0
 18 19  1  0
 19 20  2  0
 20 21  1  0
 21 22  2  0
 22 23  1  0
 23 24  2  0
 23 25  2  0
 23 26  1  0
 26 27  1  0
 26 28  1  0
 15 29  2  0
  5 30  1  0
 30 31  1  0
 31 32  1  0
 32 33  1  0
 33 34  1  0
 34 35  1  0
 33 36  1  0
 36 37  1  0
 37 38  1  0
 38 39  1  0
 39 40  1  0
 40 41  1  0
 41 42  1  0
 39 43  1  0
 43 44  1  0
  8  3  1  0
 29 10  1  0
 35 30  1  0
 44 36  1  0
 22 17  1  0
  1 45  1  0
  1 46  1  0
  1 47  1  0
  4 48  1  0
  6 49  1  0
  7 50  1  0
  9 51  1  0
 12 52  1  0
 16 53  1  0
 18 54  1  0
 19 55  1  0
 20 56  1  0
 21 57  1  0
 26 58  1  0
 27 59  1  0
 27 60  1  0
 27 61  1  0
 28 62  1  0
 28 63  1  0
 28 64  1  0
 31 65  1  0
 31 66  1  0
 32 67  1  0
 32 68  1  0
 33 69  1  0
 34 70  1  0
 34 71  1  0
 35 72  1  0
 35 73  1  0
 37 74  1  0
 37 75  1  0
 38 76  1  0
 38 77  1  0
 40 78  1  0
 40 79  1  0
 41 80  1  0
 41 81  1  0
 43 82  1  0
 43 83  1  0
 44 84  1  0
 44 85  1  0
M  END
$$$$
[H]C1=C(C(=O)[O-])N2C(=O)/C(=C(\[H])c3nc4n(c3[H])C([H])([H])C([H])([H])C4([H])[H])[C@@]2([H])S1
     RDKit          3D

 30 33  0  0  0  0  0  0  0  0999 V2000
    6.3185    1.2949    1.2196 O   0  0  0  0  0  0  0  0  0  0  0  0
    5.5528    0.2840    0.6617 C   0  0  0  0  0  0  0  0  0  0  0  0
    6.1965   -0.7068    0.2157 O   0  0  0  0  0  0  0  0  0  0  0  0
    4.0711    0.3567    0.5907 C   0  0  0  0  0  0  0  0  0  0  0  0
    3.4427    1.4043    1.0668 C   0  0  0  0  0  0  0  0  0  0  0  0
    1.6896    1.0710    0.7704 S   0  0  0  0  0  0  0  0  0  0  0  0
    2.0275   -0.1924   -0.5342 C   0  0  1  0  0  0  0  0  0  0  0  0
    3.2971   -0.6600    0.0460 N   0  0  0  0  0  0  0  0  0  0  0  0
    2.8835   -1.9806   -0.3562 C   0  0  0  0  0  0  0  0  0  0  0  0
    3.4727   -3.0509   -0.6424 O   0  0  0  0  0  0  0  0  0  0  0  0
    1.4987   -1.5152   -0.2801 C   0  0  0  0  0  0  0  0  0  0  0  0
    0.3120   -2.0603   -0.0741 C   0  0  0  0  0  0  0  0  0  0  0  0
   -0.8580   -1.1919   -0.0825 C   0  0  0  0  0  0  0  0  0  0  0  0
   -1.1270   -0.0889   -0.8653 C   0  0  0  0  0  0  0  0  0  0  0  0
   -2.3311    0.4237   -0.5446 N   0  0  0  0  0  0  0  0  0  0  0  0
   -3.2527    1.4990   -0.8898 C   0  0  0  0  0  0  0  0  0  0  0  0
   -4.5442    1.0884   -0.2371 C   0  0  0  0  0  0  0  0  0  0  0  0
   -4.1560    0.1302    0.8668 C   0  0  0  0  0  0  0  0  0  0  0  0
   -2.8259   -0.3357    0.4256 C   0  0  0  0  0  0  0  0  0  0  0  0
   -1.9328   -1.3267    0.7158 N   0  0  0  0  0  0  0  0  0  0  0  0
    3.8332    2.2948    1.5402 H   0  0  0  0  0  0  0  0  0  0  0  0
    2.0852    0.1980   -1.5392 H   0  0  0  0  0  0  0  0  0  0  0  0
    0.2742   -3.1289    0.0905 H   0  0  0  0  0  0  0  0  0  0  0  0
   -0.4214    0.2622   -1.6164 H   0  0  0  0  0  0  0  0  0  0  0  0
   -3.3707    1.4924   -1.9786 H   0  0  0  0  0  0  0  0  0  0  0  0
   -2.8765    2.4691   -0.4857 H   0  0  0  0  0  0  0  0  0  0  0  0
   -5.0424    1.9904    0.1259 H   0  0  0  0  0  0  0  0  0  0  0  0
   -5.1885    0.5532   -0.9695 H   0  0  0  0  0  0  0  0  0  0  0  0
   -4.1362    0.6174    1.8540 H   0  0  0  0  0  0  0  0  0  0  0  0
   -4.8919   -0.7254    0.9060 H   0  0  0  0  0  0  0  0  0  0  0  0
  1  2  1  0
  2  3  2  0
  2  4  1  0
  4  5  2  0
  5  6  1  0
  6  7  1  0
  7  8  1  0
  8  9  1  0
  9 10  2  0
  9 11  1  0
 11 12  2  0
 12 13  1  0
 13 14  2  0
 14 15  1  0
 15 16  1  0
 16 17  1  0
 17 18  1  0
 18 19  1  0
 19 20  2  0
  8  4  1  0
 20 13  1  0
 11  7  1  0
 19 15  1  0
  5 21  1  0
  7 22  1  6
 12 23  1  0
 14 24  1  0
 16 25  1  0
 16 26  1  0
 17 27  1  0
 17 28  1  0
 18 29  1  0
 18 30  1  0
M  CHG  1   1  -1
M  END
$$$$
[H]c1c([H])c([H])c2c(c1[H])c1c3c(c4c5c([H])c([H])c([H])c([H])c5n5c4c1n2[C@]1([H])O[C@]5(C([H])([H])[H])[C@]([H])(OC([H])([H])[H])[C@@]([H])(N([H])C([H])([H])[H])C1([H])[H])C([H])([H])N([H])C3=O
     RDKit          3D

 61 68  0  0  0  0  0  0  0  0999 V2000
   -4.6729    2.4704    0.6701 C   0  0  0  0  0  0  0  0  0  0  0  0
   -3.9561    1.2431    0.7989 N   0  0  0  0  0  0  0  0  0  0  0  0
   -3.1827    0.9142   -0.3838 C   0  0  1  0  0  0  0  0  0  0  0  0
   -2.1402    2.0723   -0.5185 C   0  0  0  0  0  0  0  0  0  0  0  0
   -0.9578    1.3809   -0.4239 C   0  0  1  0  0  0  0  0  0  0  0  0
   -1.0012    0.5004   -1.5008 O   0  0  0  0  0  0  0  0  0  0  0  0
   -1.3700   -0.7676   -0.9505 C   0  0  2  0  0  0  0  0  0  0  0  0
   -1.7787   -1.5242   -2.2382 C   0  0  0  0  0  0  0  0  0  0  0  0
   -2.4988   -0.4528   -0.0976 C   0  0  2  0  0  0  0  0  0  0  0  0
   -3.5516   -1.3395   -0.4711 O   0  0  0  0  0  0  0  0  0  0  0  0
   -4.0462   -2.0650    0.5660 C   0  0  0  0  0  0  0  0  0  0  0  0
   -0.1182   -1.2988   -0.4529 N   0  0  0  0  0  0  0  0  0  0  0  0
    0.2026   -2.6147   -0.3684 C   0  0  0  0  0  0  0  0  0  0  0  0
   -0.5266   -3.7517   -0.5683 C   0  0  0  0  0  0  0  0  0  0  0  0
    0.0524   -5.0036   -0.4051 C   0  0  0  0  0  0  0  0  0  0  0  0
    1.3926   -5.1477   -0.0325 C   0  0  0  0  0  0  0  0  0  0  0  0
    2.1371   -4.0052    0.1725 C   0  0  0  0  0  0  0  0  0  0  0  0
    1.5289   -2.7803    0.0012 C   0  0  0  0  0  0  0  0  0  0  0  0
    2.0485   -1.5465    0.1558 C   0  0  0  0  0  0  0  0  0  0  0  0
    3.3025   -1.0014    0.4712 C   0  0  0  0  0  0  0  0  0  0  0  0
    4.5400   -1.7303    0.7940 C   0  0  0  0  0  0  0  0  0  0  0  0
    5.5206   -0.7063    1.0489 N   0  0  0  0  0  0  0  0  0  0  0  0
    4.9204    0.5944    0.8755 C   0  0  0  0  0  0  0  0  0  0  0  0
    5.6103    1.6121    1.0433 O   0  0  0  0  0  0  0  0  0  0  0  0
    3.5413    0.3604    0.5176 C   0  0  0  0  0  0  0  0  0  0  0  0
    2.5227    1.2647    0.2507 C   0  0  0  0  0  0  0  0  0  0  0  0
    2.3682    2.6229    0.2472 C   0  0  0  0  0  0  0  0  0  0  0  0
    3.2205    3.6549    0.4650 C   0  0  0  0  0  0  0  0  0  0  0  0
    2.7083    4.9621    0.3758 C   0  0  0  0  0  0  0  0  0  0  0  0
    1.3816    5.1770    0.0757 C   0  0  0  0  0  0  0  0  0  0  0  0
    0.5187    4.1120   -0.1455 C   0  0  0  0  0  0  0  0  0  0  0  0
    1.0401    2.8494   -0.0530 C   0  0  0  0  0  0  0  0  0  0  0  0
    0.3949    1.7020   -0.2301 N   0  0  0  0  0  0  0  0  0  0  0  0
    1.3072    0.7097   -0.0536 C   0  0  0  0  0  0  0  0  0  0  0  0
    1.0653   -0.6739   -0.1093 C   0  0  0  0  0  0  0  0  0  0  0  0
   -4.1378    3.2896    1.1811 H   0  0  0  0  0  0  0  0  0  0  0  0
   -4.9117    2.6802   -0.3866 H   0  0  0  0  0  0  0  0  0  0  0  0
   -5.6527    2.3385    1.2050 H   0  0  0  0  0  0  0  0  0  0  0  0
   -3.2976    1.2798    1.6344 H   0  0  0  0  0  0  0  0  0  0  0  0
   -3.8488    0.8666   -1.2338 H   0  0  0  0  0  0  0  0  0  0  0  0
   -2.3900    2.5503   -1.5008 H   0  0  0  0  0  0  0  0  0  0  0  0
   -2.3278    2.8494    0.2401 H   0  0  0  0  0  0  0  0  0  0  0  0
   -1.1232    0.8155    0.6063 H   0  0  0  0  0  0  0  0  0  0  0  0
   -2.0290   -0.8100   -3.0632 H   0  0  0  0  0  0  0  0  0  0  0  0
   -0.9380   -2.1222   -2.6367 H   0  0  0  0  0  0  0  0  0  0  0  0
   -2.6973   -2.1123   -2.1005 H   0  0  0  0  0  0  0  0  0  0  0  0
   -2.3910   -0.6283    0.9834 H   0  0  0  0  0  0  0  0  0  0  0  0
   -3.2245   -2.6856    1.0089 H   0  0  0  0  0  0  0  0  0  0  0  0
   -4.7508   -2.8108    0.1278 H   0  0  0  0  0  0  0  0  0  0  0  0
   -4.5876   -1.5274    1.3339 H   0  0  0  0  0  0  0  0  0  0  0  0
   -1.5381   -3.7221   -0.8394 H   0  0  0  0  0  0  0  0  0  0  0  0
   -0.5262   -5.8823   -0.5635 H   0  0  0  0  0  0  0  0  0  0  0  0
    1.8193   -6.1363    0.0880 H   0  0  0  0  0  0  0  0  0  0  0  0
    3.1750   -4.0914    0.4618 H   0  0  0  0  0  0  0  0  0  0  0  0
    4.3470   -2.2880    1.7377 H   0  0  0  0  0  0  0  0  0  0  0  0
    4.8560   -2.4302   -0.0043 H   0  0  0  0  0  0  0  0  0  0  0  0
    6.5043   -0.9356    1.3160 H   0  0  0  0  0  0  0  0  0  0  0  0
    4.2542    3.5201    0.6968 H   0  0  0  0  0  0  0  0  0  0  0  0
    3.4136    5.7638    0.5555 H   0  0  0  0  0  0  0  0  0  0  0  0
    0.9998    6.1818    0.0099 H   0  0  0  0  0  0  0  0  0  0  0  0
   -0.5210    4.2535   -0.3844 H   0  0  0  0  0  0  0  0  0  0  0  0
  1  2  1  0
  2  3  1  0
  3  4  1  0
  4  5  1  0
  5  6  1  0
  6  7  1  0
  7  8  1  6
  7  9  1  0
  9 10  1  0
 10 11  1  0
  7 12  1  0
 12 13  1  0
 13 14  2  0
 14 15  1  0
 15 16  2  0
 16 17  1  0
 17 18  2  0
 18 19  1  0
 19 20  2  0
 20 21  1  0
 21 22  1  0
 22 23  1  0
 23 24  2  0
 23 25  1  0
 25 26  2  0
 26 27  1  0
 27 28  2  0
 28 29  1  0
 29 30  2  0
 30 31  1  0
 31 32  2  0
 32 33  1  0
 33 34  1  0
 34 35  2  0
  9  3  1  0
 35 12  1  0
 33  5  1  0
 18 13  1  0
 35 19  1  0
 25 20  1  0
 34 26  1  0
 32 27  1  0
  1 36  1  0
  1 37  1  0
  1 38  1  0
  2 39  1  0
  3 40  1  6
  4 41  1  0
  4 42  1  0
  5 43  1  1
  8 44  1  0
  8 45  1  0
  8 46  1  0
  9 47  1  1
 11 48  1  0
 11 49  1  0
 11 50  1  0
 14 51  1  0
 15 52  1  0
 16 53  1  0
 17 54  1  0
 21 55  1  0
 21 56  1  0
 22 57  1  0
 28 58  1  0
 29 59  1  0
 30 60  1  0
 31 61  1  0
M  END
$$$$
[H]c1c([H])c([H])c2c(c1[H])c1c3c(c4c5c([H])c([H])c([H])c([H])c5n5c4c1n2[C@@]1(C([H])([H])[H])O[C@]5([H])C([H])([H])[C@@]([H])(N(C([H])([H])[H])C([H])([H])[H])[C@@]1([H])OC([H])([H])[H])C(=O)N([H])C3([H])[H]
     RDKit          3D

 64 71  0  0  0  0  0  0  0  0999 V2000
   -2.6590   -2.1737   -1.5272 C   0  0  0  0  0  0  0  0  0  0  0  0
   -1.9703   -1.1410   -0.9458 O   0  0  0  0  0  0  0  0  0  0  0  0
   -2.1814   -1.0043    0.4140 C   0  0  2  0  0  0  0  0  0  0  0  0
   -2.9478    0.3303    0.5502 C   0  0  1  0  0  0  0  0  0  0  0  0
   -2.0420    1.3339   -0.1600 C   0  0  0  0  0  0  0  0  0  0  0  0
   -0.8962    1.5047    0.8033 C   0  0  1  0  0  0  0  0  0  0  0  0
   -0.8082    0.4843    1.7165 O   0  0  0  0  0  0  0  0  0  0  0  0
   -0.9398   -0.8232    1.2124 C   0  0  1  0  0  0  0  0  0  0  0  0
   -1.1918   -1.6082    2.5360 C   0  0  0  0  0  0  0  0  0  0  0  0
    0.3173   -1.2346    0.6438 N   0  0  0  0  0  0  0  0  0  0  0  0
    0.7940   -2.5121    0.5802 C   0  0  0  0  0  0  0  0  0  0  0  0
    0.2507   -3.7287    0.8793 C   0  0  0  0  0  0  0  0  0  0  0  0
    0.9499   -4.9017    0.7045 C   0  0  0  0  0  0  0  0  0  0  0  0
    2.2299   -4.8805    0.2179 C   0  0  0  0  0  0  0  0  0  0  0  0
    2.8165   -3.6610   -0.0985 C   0  0  0  0  0  0  0  0  0  0  0  0
    2.0893   -2.5236    0.0887 C   0  0  0  0  0  0  0  0  0  0  0  0
    2.4248   -1.2051   -0.1670 C   0  0  0  0  0  0  0  0  0  0  0  0
    3.5537   -0.5935   -0.6784 C   0  0  0  0  0  0  0  0  0  0  0  0
    4.8333   -1.2334   -1.0826 C   0  0  0  0  0  0  0  0  0  0  0  0
    5.6646   -0.1306   -1.4644 N   0  0  0  0  0  0  0  0  0  0  0  0
    4.9321    1.1133   -1.3667 C   0  0  0  0  0  0  0  0  0  0  0  0
    5.4015    2.2302   -1.6659 O   0  0  0  0  0  0  0  0  0  0  0  0
    3.6222    0.7869   -0.8735 C   0  0  0  0  0  0  0  0  0  0  0  0
    2.4859    1.5156   -0.5246 C   0  0  0  0  0  0  0  0  0  0  0  0
    2.1866    2.8533   -0.6180 C   0  0  0  0  0  0  0  0  0  0  0  0
    2.8608    3.9553   -1.0563 C   0  0  0  0  0  0  0  0  0  0  0  0
    2.2063    5.1911   -1.0149 C   0  0  0  0  0  0  0  0  0  0  0  0
    0.9221    5.3086   -0.5475 C   0  0  0  0  0  0  0  0  0  0  0  0
    0.2481    4.1966   -0.1074 C   0  0  0  0  0  0  0  0  0  0  0  0
    0.8790    2.9756   -0.1435 C   0  0  0  0  0  0  0  0  0  0  0  0
    0.3890    1.8047    0.2235 N   0  0  0  0  0  0  0  0  0  0  0  0
    1.3494    0.8965   -0.0023 C   0  0  0  0  0  0  0  0  0  0  0  0
    1.3511   -0.4615    0.1675 C   0  0  0  0  0  0  0  0  0  0  0  0
   -4.2930    0.3446    0.2913 N   0  0  0  0  0  0  0  0  0  0  0  0
   -5.0436    0.7473    1.4641 C   0  0  0  0  0  0  0  0  0  0  0  0
   -4.8534    0.8849   -0.8712 C   0  0  0  0  0  0  0  0  0  0  0  0
   -3.7640   -2.0933   -1.3953 H   0  0  0  0  0  0  0  0  0  0  0  0
   -2.3627   -3.1828   -1.2036 H   0  0  0  0  0  0  0  0  0  0  0  0
   -2.4293   -2.1334   -2.6403 H   0  0  0  0  0  0  0  0  0  0  0  0
   -2.8470   -1.8327    0.7467 H   0  0  0  0  0  0  0  0  0  0  0  0
   -2.7864    0.5602    1.6769 H   0  0  0  0  0  0  0  0  0  0  0  0
   -2.6243    2.2673   -0.3305 H   0  0  0  0  0  0  0  0  0  0  0  0
   -1.6648    0.8808   -1.0826 H   0  0  0  0  0  0  0  0  0  0  0  0
   -1.1706    2.4178    1.4174 H   0  0  0  0  0  0  0  0  0  0  0  0
   -2.0795   -2.2416    2.4741 H   0  0  0  0  0  0  0  0  0  0  0  0
   -1.4293   -0.8889    3.3785 H   0  0  0  0  0  0  0  0  0  0  0  0
   -0.2629   -2.0992    2.8768 H   0  0  0  0  0  0  0  0  0  0  0  0
   -0.7835   -3.7567    1.2465 H   0  0  0  0  0  0  0  0  0  0  0  0
    0.4741   -5.8477    0.9538 H   0  0  0  0  0  0  0  0  0  0  0  0
    2.8283   -5.7697    0.0609 H   0  0  0  0  0  0  0  0  0  0  0  0
    3.8149   -3.6015   -0.4782 H   0  0  0  0  0  0  0  0  0  0  0  0
    5.2621   -1.7400   -0.1702 H   0  0  0  0  0  0  0  0  0  0  0  0
    4.7119   -1.9290   -1.9281 H   0  0  0  0  0  0  0  0  0  0  0  0
    6.6689   -0.1370   -1.7801 H   0  0  0  0  0  0  0  0  0  0  0  0
    3.8511    3.9738   -1.4434 H   0  0  0  0  0  0  0  0  0  0  0  0
    2.7407    6.0639   -1.3629 H   0  0  0  0  0  0  0  0  0  0  0  0
    0.4723    6.2896   -0.5402 H   0  0  0  0  0  0  0  0  0  0  0  0
   -0.7840    4.2633    0.2726 H   0  0  0  0  0  0  0  0  0  0  0  0
   -4.6624    0.2928    2.4020 H   0  0  0  0  0  0  0  0  0  0  0  0
   -4.7498    1.8498    1.5960 H   0  0  0  0  0  0  0  0  0  0  0  0
   -6.1311    0.7345    1.3414 H   0  0  0  0  0  0  0  0  0  0  0  0
   -4.1705    0.9920   -1.7347 H   0  0  0  0  0  0  0  0  0  0  0  0
   -5.6628    0.1710   -1.2194 H   0  0  0  0  0  0  0  0  0  0  0  0
   -5.3911    1.8557   -0.7112 H   0  0  0  0  0  0  0  0  0  0  0  0
  1  2  1  0
  2  3  1  0
  3  4  1  0
  4  5  1  0
  5  6  1  0
  6  7  1  0
  7  8  1  0
  8  9  1  1
  8 10  1  0
 10 11  1  0
 11 12  2  0
 12 13  1  0
 13 14  2  0
 14 15  1  0
 15 16  2  0
 16 17  1  0
 17 18  2  0
 18 19  1  0
 19 20  1  0
 20 21  1  0
 21 22  2  0
 21 23  1  0
 23 24  2  0
 24 25  1  0
 25 26  2  0
 26 27  1  0
 27 28  2  0
 28 29  1  0
 29 30  2  0
 30 31  1  0
 31 32  1  0
 32 33  2  0
  4 34  1  0
 34 35  1  0
 34 36  1  0
  8  3  1  0
 33 10  1  0
 31  6  1  0
 16 11  1  0
 33 17  1  0
 23 18  1  0
 32 24  1  0
 30 25  1  0
  1 37  1  0
  1 38  1  0
  1 39  1  0
  3 40  1  1
  4 41  1  1
  5 42  1  0
  5 43  1  0
  6 44  1  1
  9 45  1  0
  9 46  1  0
  9 47  1  0
 12 48  1  0
 13 49  1  0
 14 50  1  0
 15 51  1  0
 19 52  1  0
 19 53  1  0
 20 54  1  0
 26 55  1  0
 27 56  1  0
 28 57  1  0
 29 58  1  0
 35 59  1  0
 35 60  1  0
 35 61  1  0
 36 62  1  0
 36 63  1  0
 36 64  1  0
M  END
$$$$
[H]O[C@@](C(=O)N1C([H])([H])C([H])([H])N(C(=O)c2c([H])c([H])c(C#N)c([H])c2[H])[C@]([H])(C([H])([H])[H])C1([H])[H])(C([H])([H])[H])C(F)(F)F
     RDKit          3D

 44 45  0  0  0  0  0  0  0  0999 V2000
   -0.1675    1.3193    0.3799 C   0  0  0  0  0  0  0  0  0  0  0  0
   -0.4663    0.0039    1.0454 C   0  0  2  0  0  0  0  0  0  0  0  0
    0.8567   -0.4391    1.7112 C   0  0  0  0  0  0  0  0  0  0  0  0
    1.8859   -0.3373    0.6673 N   0  0  0  0  0  0  0  0  0  0  0  0
    1.5877   -1.0220   -0.5593 C   0  0  0  0  0  0  0  0  0  0  0  0
    0.2858   -1.7880   -0.4886 C   0  0  0  0  0  0  0  0  0  0  0  0
   -0.8177   -0.9542    0.0450 N   0  0  0  0  0  0  0  0  0  0  0  0
   -2.0667   -1.1922   -0.4889 C   0  0  0  0  0  0  0  0  0  0  0  0
   -2.0222   -2.1729   -1.3983 O   0  0  0  0  0  0  0  0  0  0  0  0
   -3.3804   -0.6476   -0.3036 C   0  0  0  0  0  0  0  0  0  0  0  0
   -4.4516   -1.2031   -1.0314 C   0  0  0  0  0  0  0  0  0  0  0  0
   -5.7432   -0.7543   -0.9366 C   0  0  0  0  0  0  0  0  0  0  0  0
   -6.0477    0.2904   -0.0983 C   0  0  0  0  0  0  0  0  0  0  0  0
   -5.0468    0.8712    0.6351 C   0  0  0  0  0  0  0  0  0  0  0  0
   -3.7439    0.3822    0.5079 C   0  0  0  0  0  0  0  0  0  0  0  0
   -7.3937    0.7506   -0.0059 C   0  0  0  0  0  0  0  0  0  0  0  0
   -8.4787    1.1298    0.0534 N   0  0  0  0  0  0  0  0  0  0  0  0
    3.0781    0.3661    0.8600 C   0  0  0  0  0  0  0  0  0  0  0  0
    3.2371    0.9201    2.0046 O   0  0  0  0  0  0  0  0  0  0  0  0
    4.1366    0.5195   -0.1141 C   0  0  1  0  0  0  0  0  0  0  0  0
    5.4165   -0.1096    0.4650 C   0  0  0  0  0  0  0  0  0  0  0  0
    3.9513   -0.0874   -1.3437 O   0  0  0  0  0  0  0  0  0  0  0  0
    4.4727    1.9642   -0.4219 C   0  0  0  0  0  0  0  0  0  0  0  0
    4.8868    2.6604    0.6750 F   0  0  0  0  0  0  0  0  0  0  0  0
    3.3861    2.6299   -0.9557 F   0  0  0  0  0  0  0  0  0  0  0  0
    5.4734    2.0079   -1.3721 F   0  0  0  0  0  0  0  0  0  0  0  0
    0.7839    1.7225    0.7338 H   0  0  0  0  0  0  0  0  0  0  0  0
   -0.9427    2.0913    0.6335 H   0  0  0  0  0  0  0  0  0  0  0  0
   -0.1773    1.2205   -0.7363 H   0  0  0  0  0  0  0  0  0  0  0  0
   -1.1919    0.1561    1.8522 H   0  0  0  0  0  0  0  0  0  0  0  0
    0.7794   -1.4353    2.1415 H   0  0  0  0  0  0  0  0  0  0  0  0
    1.0684    0.3293    2.4804 H   0  0  0  0  0  0  0  0  0  0  0  0
    2.3646   -1.7978   -0.7213 H   0  0  0  0  0  0  0  0  0  0  0  0
    1.5519   -0.2829   -1.3774 H   0  0  0  0  0  0  0  0  0  0  0  0
    0.0603   -2.1377   -1.5104 H   0  0  0  0  0  0  0  0  0  0  0  0
    0.3654   -2.6753    0.1604 H   0  0  0  0  0  0  0  0  0  0  0  0
   -4.2658   -2.0186   -1.6967 H   0  0  0  0  0  0  0  0  0  0  0  0
   -6.5522   -1.1943   -1.5039 H   0  0  0  0  0  0  0  0  0  0  0  0
   -5.2941    1.6925    1.2923 H   0  0  0  0  0  0  0  0  0  0  0  0
   -3.0379    0.8925    1.1049 H   0  0  0  0  0  0  0  0  0  0  0  0
    5.1862   -1.1131    0.8562 H   0  0  0  0  0  0  0  0  0  0  0  0
    5.8560    0.5424    1.2316 H   0  0  0  0  0  0  0  0  0  0  0  0
    6.1473   -0.1852   -0.3720 H   0  0  0  0  0  0  0  0  0  0  0  0
    4.4701   -0.9148   -1.4633 H   0  0  0  0  0  0  0  0  0  0  0  0
  1  2  1  0
  2  3  1  0
  3  4  1  0
  4  5  1  0
  5  6  1  0
  6  7  1  0
  7  8  1  0
  8  9  2  0
  8 10  1  0
 10 11  2  0
 11 12  1  0
 12 13  2  0
 13 14  1  0
 14 15  2  0
 13 16  1  0
 16 17  3  0
  4 18  1  0
 18 19  2  0
 18 20  1  0
 20 21  1  0
 20 22  1  6
 20 23  1  0
 23 24  1  0
 23 25  1  0
 23 26  1  0
  7  2  1  0
 15 10  1  0
  1 27  1  0
  1 28  1  0
  1 29  1  0
  2 30  1  1
  3 31  1  0
  3 32  1  0
  5 33  1  0
  5 34  1  0
  6 35  1  0
  6 36  1  0
 11 37  1  0
 12 38  1  0
 14 39  1  0
 15 40  1  0
 21 41  1  0
 21 42  1  0
 21 43  1  0
 22 44  1  0
M  END
$$$$
[H]Oc1c([H])c2c(C(F)(F)F)c([H])c1-c1c([H])c([H])c(c([H])c1C#N)N(c1c([H])nc([H])c([H])c1C([H])([H])[H])N(c1c([H])c([H])c(OC([H])([H])C([H])([H])C([H])([H])C([H])([H])C([H])([H])C([H])([H])[H])c([N+](=O)[O-])c1[H])C2=O
     RDKit          2D

 74 78  0  0  0  0  0  0  0  0999 V2000
    7.9661  -13.5554    0.0000 C   0  0  0  0  0  0  0  0  0  0  0  0
    8.1087  -12.0622    0.0000 C   0  0  0  0  0  0  0  0  0  0  0  0
    8.2513  -10.5690    0.0000 C   0  0  0  0  0  0  0  0  0  0  0  0
    8.3939   -9.0758    0.0000 C   0  0  0  0  0  0  0  0  0  0  0  0
    8.5365   -7.5826    0.0000 C   0  0  0  0  0  0  0  0  0  0  0  0
    8.6790   -6.0894    0.0000 C   0  0  0  0  0  0  0  0  0  0  0  0
    8.8216   -4.5962    0.0000 O   0  0  0  0  0  0  0  0  0  0  0  0
    7.5998   -3.7261    0.0000 C   0  0  0  0  0  0  0  0  0  0  0  0
    6.2353   -4.3492    0.0000 C   0  0  0  0  0  0  0  0  0  0  0  0
    5.0134   -3.4791    0.0000 C   0  0  0  0  0  0  0  0  0  0  0  0
    5.1560   -1.9859    0.0000 C   0  0  0  0  0  0  0  0  0  0  0  0
    6.5205   -1.3628    0.0000 C   0  0  0  0  0  0  0  0  0  0  0  0
    7.7423   -2.2329    0.0000 C   0  0  0  0  0  0  0  0  0  0  0  0
    9.1068   -1.6097    0.0000 N   0  0  0  0  0  0  0  0  0  0  0  0
   10.3287   -2.4798    0.0000 O   0  0  0  0  0  0  0  0  0  0  0  0
    9.6065   -0.1954    0.0000 O   0  0  0  0  0  0  0  0  0  0  0  0
    3.9342   -1.1158    0.0000 N   0  0  0  0  0  0  0  0  0  0  0  0
    2.7551   -2.0431    0.0000 C   0  0  0  0  0  0  0  0  0  0  0  0
    3.1387   -3.4932    0.0000 O   0  0  0  0  0  0  0  0  0  0  0  0
    0.7500   -1.2990    0.0000 C   0  0  0  0  0  0  0  0  0  0  0  0
    1.5000    0.0000    0.0000 C   0  0  0  0  0  0  0  0  0  0  0  0
    0.7500    1.2990    0.0000 C   0  0  0  0  0  0  0  0  0  0  0  0
    1.5000    2.5981    0.0000 O   0  0  0  0  0  0  0  0  0  0  0  0
   -0.7500    1.2990    0.0000 C   0  0  0  0  0  0  0  0  0  0  0  0
   -1.5000    0.0000    0.0000 C   0  0  0  0  0  0  0  0  0  0  0  0
   -0.7500   -1.2990    0.0000 C   0  0  0  0  0  0  0  0  0  0  0  0
   -1.5000   -2.5981    0.0000 C   0  0  0  0  0  0  0  0  0  0  0  0
   -2.2500   -3.8971    0.0000 F   0  0  0  0  0  0  0  0  0  0  0  0
   -0.2010   -3.3481    0.0000 F   0  0  0  0  0  0  0  0  0  0  0  0
   -2.7990   -1.8481    0.0000 F   0  0  0  0  0  0  0  0  0  0  0  0
    0.1201    2.5209    0.0000 C   0  0  0  0  0  0  0  0  0  0  0  0
    1.5126    3.0784    0.0000 C   0  0  0  0  0  0  0  0  0  0  0  0
    2.9855    2.7945    0.0000 C   0  0  0  0  0  0  0  0  0  0  0  0
    4.0711    1.7594    0.0000 C   0  0  0  0  0  0  0  0  0  0  0  0
    2.6786    1.2019    0.0000 C   0  0  0  0  0  0  0  0  0  0  0  0
    1.2057    1.4858    0.0000 C   0  0  0  0  0  0  0  0  0  0  0  0
    0.5183    0.1525    0.0000 C   0  0  0  0  0  0  0  0  0  0  0  0
    0.1740   -1.3074    0.0000 N   0  0  0  0  0  0  0  0  0  0  0  0
    4.4248    0.3017    0.0000 N   0  0  0  0  0  0  0  0  0  0  0  0
    5.9231    0.2303    0.0000 C   0  0  0  0  0  0  0  0  0  0  0  0
    6.6104   -1.1029    0.0000 C   0  0  0  0  0  0  0  0  0  0  0  0
    8.1087   -1.1743    0.0000 N   0  0  0  0  0  0  0  0  0  0  0  0
    8.9197    0.0876    0.0000 C   0  0  0  0  0  0  0  0  0  0  0  0
    8.2323    1.4208    0.0000 C   0  0  0  0  0  0  0  0  0  0  0  0
    6.7340    1.4922    0.0000 C   0  0  0  0  0  0  0  0  0  0  0  0
    6.0467    2.8254    0.0000 C   0  0  0  0  0  0  0  0  0  0  0  0
    7.8235  -15.0486    0.0000 H   0  0  0  0  0  0  0  0  0  0  0  0
    6.4729  -13.4128    0.0000 H   0  0  0  0  0  0  0  0  0  0  0  0
    9.4593  -13.6980    0.0000 H   0  0  0  0  0  0  0  0  0  0  0  0
    6.6155  -11.9196    0.0000 H   0  0  0  0  0  0  0  0  0  0  0  0
    9.6019  -12.2048    0.0000 H   0  0  0  0  0  0  0  0  0  0  0  0
    9.7445  -10.7116    0.0000 H   0  0  0  0  0  0  0  0  0  0  0  0
    6.7581  -10.4264    0.0000 H   0  0  0  0  0  0  0  0  0  0  0  0
    6.9007   -8.9332    0.0000 H   0  0  0  0  0  0  0  0  0  0  0  0
    9.8871   -9.2184    0.0000 H   0  0  0  0  0  0  0  0  0  0  0  0
   10.0297   -7.7252    0.0000 H   0  0  0  0  0  0  0  0  0  0  0  0
    7.0432   -7.4400    0.0000 H   0  0  0  0  0  0  0  0  0  0  0  0
    7.1858   -5.9468    0.0000 H   0  0  0  0  0  0  0  0  0  0  0  0
   10.1722   -6.2320    0.0000 H   0  0  0  0  0  0  0  0  0  0  0  0
    6.0927   -5.8424    0.0000 H   0  0  0  0  0  0  0  0  0  0  0  0
    3.7351   -4.2639    0.0000 H   0  0  0  0  0  0  0  0  0  0  0  0
    7.0201    0.0516    0.0000 H   0  0  0  0  0  0  0  0  0  0  0  0
    2.9888   -0.1828    0.0000 H   0  0  0  0  0  0  0  0  0  0  0  0
    0.7500    3.8971    0.0000 H   0  0  0  0  0  0  0  0  0  0  0  0
   -3.0000    0.0000    0.0000 H   0  0  0  0  0  0  0  0  0  0  0  0
    1.3701    4.5716    0.0000 H   0  0  0  0  0  0  0  0  0  0  0  0
    3.6729    4.1278    0.0000 H   0  0  0  0  0  0  0  0  0  0  0  0
    3.0021   -0.2628    0.0000 H   0  0  0  0  0  0  0  0  0  0  0  0
    6.1289   -2.5236    0.0000 H   0  0  0  0  0  0  0  0  0  0  0  0
   10.4180    0.0162    0.0000 H   0  0  0  0  0  0  0  0  0  0  0  0
    9.0433    2.6827    0.0000 H   0  0  0  0  0  0  0  0  0  0  0  0
    5.3594    4.1587    0.0000 H   0  0  0  0  0  0  0  0  0  0  0  0
    7.3799    3.5128    0.0000 H   0  0  0  0  0  0  0  0  0  0  0  0
    4.5867    2.4811    0.0000 H   0  0  0  0  0  0  0  0  0  0  0  0
  1  2  1  0
  2  3  1  0
  3  4  1  0
  4  5  1  0
  5  6  1  0
  6  7  1  0
  7  8  1  0
  8  9  2  0
  9 10  1  0
 10 11  2  0
 11 12  1  0
 12 13  2  0
 13 14  1  0
 14 15  2  0
 14 16  1  0
 11 17  1  0
 17 18  1  0
 18 19  2  0
 18 20  1  0
 20 21  2  0
 21 22  1  0
 22 23  1  0
 22 24  2  0
 24 25  1  0
 25 26  2  0
 26 27  1  0
 27 28  1  0
 27 29  1  0
 27 30  1  0
 24 31  1  0
 31 32  2  0
 32 33  1  0
 33 34  2  0
 34 35  1  0
 35 36  2  0
 36 37  1  0
 37 38  3  0
 34 39  1  0
 39 40  1  0
 40 41  2  0
 41 42  1  0
 42 43  2  0
 43 44  1  0
 44 45  2  0
 45 46  1  0
 13  8  1  0
 39 17  1  0
 45 40  1  0
 26 20  1  0
 36 31  1  0
  1 47  1  0
  1 48  1  0
  1 49  1  0
  2 50  1  0
  2 51  1  0
  3 52  1  0
  3 53  1  0
  4 54  1  0
  4 55  1  0
  5 56  1  0
  5 57  1  0
  6 58  1  0
  6 59  1  0
  9 60  1  0
 10 61  1  0
 12 62  1  0
 21 63  1  0
 23 64  1  0
 25 65  1  0
 32 66  1  0
 33 67  1  0
 35 68  1  0
 41 69  1  0
 43 70  1  0
 44 71  1  0
 46 72  1  0
 46 73  1  0
 46 74  1  0
M  CHG  2  14   1  16  -1
M  END
$$$$
[H]c1nc(Cl)c([H])c([H])c1C1([H])C([H])([H])C2([H])C([H])([H])N([H])C([H])([H])C([H])(C1([H])[H])C2([H])[H]
     RDKit          3D

 33 35  0  0  0  0  0  0  0  0999 V2000
    6.1268    0.0730    1.3080 Cl  0  0  0  0  0  0  0  0  0  0  0  0
    4.4719   -0.0773    0.7494 C   0  0  0  0  0  0  0  0  0  0  0  0
    4.2461   -0.6215   -0.5055 C   0  0  0  0  0  0  0  0  0  0  0  0
    2.9385   -0.7244   -0.9113 C   0  0  0  0  0  0  0  0  0  0  0  0
    1.8989   -0.3061   -0.1083 C   0  0  0  0  0  0  0  0  0  0  0  0
    2.2096    0.2236    1.1253 C   0  0  0  0  0  0  0  0  0  0  0  0
    3.4733    0.3333    1.5405 N   0  0  0  0  0  0  0  0  0  0  0  0
    0.5118   -0.4422   -0.5997 C   0  0  0  0  0  0  0  0  0  0  0  0
   -0.0581    0.9798   -0.6674 C   0  0  0  0  0  0  0  0  0  0  0  0
   -1.4642    1.0030   -1.1581 C   0  0  0  0  0  0  0  0  0  0  0  0
   -2.3795    1.7288   -0.1675 C   0  0  0  0  0  0  0  0  0  0  0  0
   -3.2496    0.8180    0.5181 N   0  0  0  0  0  0  0  0  0  0  0  0
   -2.5200   -0.2934    1.0688 C   0  0  0  0  0  0  0  0  0  0  0  0
   -1.7955   -1.1031    0.0141 C   0  0  0  0  0  0  0  0  0  0  0  0
   -1.9903   -0.4054   -1.3149 C   0  0  0  0  0  0  0  0  0  0  0  0
   -0.3502   -1.2291    0.3592 C   0  0  0  0  0  0  0  0  0  0  0  0
    5.0457   -0.9567   -1.1536 H   0  0  0  0  0  0  0  0  0  0  0  0
    2.7337   -1.1486   -1.8934 H   0  0  0  0  0  0  0  0  0  0  0  0
    1.3905    0.5481    1.7467 H   0  0  0  0  0  0  0  0  0  0  0  0
    0.5453   -0.8908   -1.6068 H   0  0  0  0  0  0  0  0  0  0  0  0
    0.6359    1.6378   -1.2239 H   0  0  0  0  0  0  0  0  0  0  0  0
   -0.0166    1.3450    0.4005 H   0  0  0  0  0  0  0  0  0  0  0  0
   -1.5362    1.4921   -2.1511 H   0  0  0  0  0  0  0  0  0  0  0  0
   -3.0018    2.4840   -0.6811 H   0  0  0  0  0  0  0  0  0  0  0  0
   -1.7669    2.2996    0.5783 H   0  0  0  0  0  0  0  0  0  0  0  0
   -4.0401    0.5568   -0.0872 H   0  0  0  0  0  0  0  0  0  0  0  0
   -1.8187    0.1086    1.8275 H   0  0  0  0  0  0  0  0  0  0  0  0
   -3.2368   -0.9448    1.6379 H   0  0  0  0  0  0  0  0  0  0  0  0
   -2.3162   -2.0987   -0.0777 H   0  0  0  0  0  0  0  0  0  0  0  0
   -3.0548   -0.4230   -1.6032 H   0  0  0  0  0  0  0  0  0  0  0  0
   -1.4277   -0.9045   -2.1247 H   0  0  0  0  0  0  0  0  0  0  0  0
   -0.0382   -2.2864    0.3982 H   0  0  0  0  0  0  0  0  0  0  0  0
   -0.1664   -0.7756    1.3771 H   0  0  0  0  0  0  0  0  0  0  0  0
  1  2  1  0
  2  3  2  0
  3  4  1  0
  4  5  2  0
  5  6  1  0
  6  7  2  0
  5  8  1  0
  8  9  1  0
  9 10  1  0
 10 11  1  0
 11 12  1  0
 12 13  1  0
 13 14  1  0
 14 15  1  0
 14 16  1  0
  7  2  1  0
 16  8  1  0
 15 10  1  0
  3 17  1  0
  4 18  1  0
  6 19  1  0
  8 20  1  0
  9 21  1  0
  9 22  1  0
 10 23  1  0
 11 24  1  0
 11 25  1  0
 12 26  1  0
 13 27  1  0
 13 28  1  0
 14 29  1  0
 15 30  1  0
 15 31  1  0
 16 32  1  0
 16 33  1  0
M  END
$$$$
[H]c1nc([H])c(C(=O)OC([H])([H])[H])c(C([H])([H])[C@@]([H])(C(=O)N([H])c2c([H])nn([H])c2C([H])([H])[H])c2c([H])c([H])c(C([H])([H])[H])c(Oc3c([H])c([H])c([H])c([H])c3[H])c2[H])c1[H]
     RDKit          3D

 61 64  0  0  0  0  0  0  0  0999 V2000
   -0.0733   -0.7114   -1.3682 C   0  0  0  0  0  0  0  0  0  0  0  0
   -1.5023   -0.2353   -1.2674 C   0  0  1  0  0  0  0  0  0  0  0  0
   -2.2785   -1.2386   -0.4459 C   0  0  0  0  0  0  0  0  0  0  0  0
   -3.6950   -0.9163   -0.2990 C   0  0  0  0  0  0  0  0  0  0  0  0
   -4.5012   -1.6353    0.5433 C   0  0  0  0  0  0  0  0  0  0  0  0
   -3.9611   -2.7457    1.2982 C   0  0  0  0  0  0  0  0  0  0  0  0
   -2.8058   -3.2007    1.2627 O   0  0  0  0  0  0  0  0  0  0  0  0
   -4.8195   -3.4203    2.1950 O   0  0  0  0  0  0  0  0  0  0  0  0
   -4.3745   -4.5162    2.9728 C   0  0  0  0  0  0  0  0  0  0  0  0
   -5.8635   -1.3007    0.6579 C   0  0  0  0  0  0  0  0  0  0  0  0
   -6.3519   -0.2825   -0.0607 N   0  0  0  0  0  0  0  0  0  0  0  0
   -5.5988    0.4483   -0.8986 C   0  0  0  0  0  0  0  0  0  0  0  0
   -4.2660    0.1268   -1.0153 C   0  0  0  0  0  0  0  0  0  0  0  0
   -1.3730    1.0679   -0.5134 C   0  0  0  0  0  0  0  0  0  0  0  0
   -1.9118    1.1713    0.6131 O   0  0  0  0  0  0  0  0  0  0  0  0
   -0.6621    2.1528   -1.0573 N   0  0  0  0  0  0  0  0  0  0  0  0
   -0.4718    3.4199   -0.4483 C   0  0  0  0  0  0  0  0  0  0  0  0
    0.2398    4.4899   -1.0082 C   0  0  0  0  0  0  0  0  0  0  0  0
    0.9235    4.5007   -2.3341 C   0  0  0  0  0  0  0  0  0  0  0  0
    0.2078    5.5113   -0.1554 N   0  0  0  0  0  0  0  0  0  0  0  0
   -0.4781    5.1646    0.9139 N   0  0  0  0  0  0  0  0  0  0  0  0
   -0.9111    3.8864    0.7693 C   0  0  0  0  0  0  0  0  0  0  0  0
    0.6976   -0.8896   -0.2533 C   0  0  0  0  0  0  0  0  0  0  0  0
    2.0292   -1.3316   -0.2981 C   0  0  0  0  0  0  0  0  0  0  0  0
    2.7533   -1.4947    0.8497 O   0  0  0  0  0  0  0  0  0  0  0  0
    3.9053   -0.7667    1.1969 C   0  0  0  0  0  0  0  0  0  0  0  0
    4.2915    0.3377    0.4702 C   0  0  0  0  0  0  0  0  0  0  0  0
    5.4230    1.0740    0.7881 C   0  0  0  0  0  0  0  0  0  0  0  0
    6.1475    0.6343    1.8847 C   0  0  0  0  0  0  0  0  0  0  0  0
    5.7786   -0.4685    2.6260 C   0  0  0  0  0  0  0  0  0  0  0  0
    4.6560   -1.1617    2.2736 C   0  0  0  0  0  0  0  0  0  0  0  0
    2.5848   -1.5990   -1.5260 C   0  0  0  0  0  0  0  0  0  0  0  0
    3.9847   -2.1009   -1.7062 C   0  0  0  0  0  0  0  0  0  0  0  0
    1.8034   -1.4174   -2.6509 C   0  0  0  0  0  0  0  0  0  0  0  0
    0.4940   -0.9820   -2.5997 C   0  0  0  0  0  0  0  0  0  0  0  0
   -1.9333   -0.1402   -2.2478 H   0  0  0  0  0  0  0  0  0  0  0  0
   -1.7997   -1.1641    0.5840 H   0  0  0  0  0  0  0  0  0  0  0  0
   -2.0492   -2.2243   -0.8465 H   0  0  0  0  0  0  0  0  0  0  0  0
   -3.3404   -4.8274    2.7208 H   0  0  0  0  0  0  0  0  0  0  0  0
   -4.5425   -4.3453    4.0435 H   0  0  0  0  0  0  0  0  0  0  0  0
   -5.0263   -5.3924    2.6982 H   0  0  0  0  0  0  0  0  0  0  0  0
   -6.4725   -1.8938    1.3368 H   0  0  0  0  0  0  0  0  0  0  0  0
   -6.0513    1.2763   -1.4669 H   0  0  0  0  0  0  0  0  0  0  0  0
   -3.6914    0.7220   -1.6954 H   0  0  0  0  0  0  0  0  0  0  0  0
   -0.2302    2.0100   -2.0074 H   0  0  0  0  0  0  0  0  0  0  0  0
    1.9343    4.9552   -2.1597 H   0  0  0  0  0  0  0  0  0  0  0  0
    0.3571    5.1235   -3.0709 H   0  0  0  0  0  0  0  0  0  0  0  0
    1.0045    3.4715   -2.6987 H   0  0  0  0  0  0  0  0  0  0  0  0
    0.6499    6.4729   -0.2736 H   0  0  0  0  0  0  0  0  0  0  0  0
   -1.5004    3.3538    1.5063 H   0  0  0  0  0  0  0  0  0  0  0  0
    0.2458   -0.6748    0.7182 H   0  0  0  0  0  0  0  0  0  0  0  0
    3.7273    0.7017   -0.3918 H   0  0  0  0  0  0  0  0  0  0  0  0
    5.7353    1.9439    0.2227 H   0  0  0  0  0  0  0  0  0  0  0  0
    7.0532    1.1771    2.1847 H   0  0  0  0  0  0  0  0  0  0  0  0
    6.3940   -0.7788    3.4964 H   0  0  0  0  0  0  0  0  0  0  0  0
    4.3624   -2.0234    2.8470 H   0  0  0  0  0  0  0  0  0  0  0  0
    4.6448   -1.3397   -2.1642 H   0  0  0  0  0  0  0  0  0  0  0  0
    4.3927   -2.5458   -0.7762 H   0  0  0  0  0  0  0  0  0  0  0  0
    3.9778   -2.9558   -2.4391 H   0  0  0  0  0  0  0  0  0  0  0  0
    2.2478   -1.6299   -3.6266 H   0  0  0  0  0  0  0  0  0  0  0  0
   -0.1103   -0.8430   -3.4878 H   0  0  0  0  0  0  0  0  0  0  0  0
  1  2  1  0
  2  3  1  0
  3  4  1  0
  4  5  2  0
  5  6  1  0
  6  7  2  0
  6  8  1  0
  8  9  1  0
  5 10  1  0
 10 11  2  0
 11 12  1  0
 12 13  2  0
  2 14  1  0
 14 15  2  0
 14 16  1  0
 16 17  1  0
 17 18  2  0
 18 19  1  0
 18 20  1  0
 20 21  1  0
 21 22  2  0
  1 23  2  0
 23 24  1  0
 24 25  1  0
 25 26  1  0
 26 27  2  0
 27 28  1  0
 28 29  2  0
 29 30  1  0
 30 31  2  0
 24 32  2  0
 32 33  1  0
 32 34  1  0
 34 35  2  0
 35  1  1  0
 13  4  1  0
 22 17  1  0
 31 26  1  0
  2 36  1  6
  3 37  1  0
  3 38  1  0
  9 39  1  0
  9 40  1  0
  9 41  1  0
 10 42  1  0
 12 43  1  0
 13 44  1  0
 16 45  1  0
 19 46  1  0
 19 47  1  0
 19 48  1  0
 20 49  1  0
 22 50  1  0
 23 51  1  0
 27 52  1  0
 28 53  1  0
 29 54  1  0
 30 55  1  0
 31 56  1  0
 33 57  1  0
 33 58  1  0
 33 59  1  0
 34 60  1  0
 35 61  1  0
M  END
$$$$
[H]O[C@@]1([H])[C@]([H])(C([H])([H])OP(=O)(O[H])OP(=O)(O[H])OC([H])([H])[C@@]2([H])OC(=O)[C@]2([H])O[H])[C@@]([H])(O[H])[C@]1([H])O[H]
     RDKit          3D

 40 41  0  0  0  0  0  0  0  0999 V2000
    6.4161   -1.5943   -1.5902 O   0  0  0  0  0  0  0  0  0  0  0  0
    5.9455   -1.1428   -0.3561 C   0  0  2  0  0  0  0  0  0  0  0  0
    5.5335    0.3219   -0.4511 C   0  0  1  0  0  0  0  0  0  0  0  0
    4.2151    0.6147    0.2337 C   0  0  0  0  0  0  0  0  0  0  0  0
    3.1318    0.3491   -0.6009 O   0  0  0  0  0  0  0  0  0  0  0  0
    1.7292    0.7044    0.2487 P   0  0  0  0  0  0  0  0  0  0  0  0
    1.3052   -0.6068    1.2445 O   0  0  0  0  0  0  0  0  0  0  0  0
    2.0039    1.9498    1.0775 O   0  0  0  0  0  0  0  0  0  0  0  0
    0.4213    1.0309   -0.7424 O   0  0  0  0  0  0  0  0  0  0  0  0
   -0.8647    1.5334    0.2434 P   0  0  0  0  0  0  0  0  0  0  0  0
   -1.0903    3.2099    0.0757 O   0  0  0  0  0  0  0  0  0  0  0  0
   -0.5470    1.2750    1.7118 O   0  0  0  0  0  0  0  0  0  0  0  0
   -2.2969    0.7769   -0.1295 O   0  0  0  0  0  0  0  0  0  0  0  0
   -2.3076   -0.5747    0.0843 C   0  0  0  0  0  0  0  0  0  0  0  0
   -3.6982   -1.0866   -0.3135 C   0  0  1  0  0  0  0  0  0  0  0  0
   -4.8146   -0.4625    0.4821 C   0  0  2  0  0  0  0  0  0  0  0  0
   -5.7630   -1.4507    0.8301 O   0  0  0  0  0  0  0  0  0  0  0  0
   -5.2803    0.2540   -0.7465 C   0  0  1  0  0  0  0  0  0  0  0  0
   -5.1068    1.6269   -0.6213 O   0  0  0  0  0  0  0  0  0  0  0  0
   -4.2480   -0.4611   -1.5562 C   0  0  2  0  0  0  0  0  0  0  0  0
   -4.7474   -1.3912   -2.4617 O   0  0  0  0  0  0  0  0  0  0  0  0
    6.6594    0.5797    0.3658 O   0  0  0  0  0  0  0  0  0  0  0  0
    7.0050   -0.7502    0.6058 C   0  0  0  0  0  0  0  0  0  0  0  0
    7.8302   -1.3797    1.3076 O   0  0  0  0  0  0  0  0  0  0  0  0
    5.7716   -1.2543   -2.2769 H   0  0  0  0  0  0  0  0  0  0  0  0
    5.1271   -1.7456    0.0469 H   0  0  0  0  0  0  0  0  0  0  0  0
    5.6540    0.7834   -1.4309 H   0  0  0  0  0  0  0  0  0  0  0  0
    4.2422    1.6982    0.5194 H   0  0  0  0  0  0  0  0  0  0  0  0
    4.1713    0.0580    1.1898 H   0  0  0  0  0  0  0  0  0  0  0  0
    1.9410   -0.5754    2.0161 H   0  0  0  0  0  0  0  0  0  0  0  0
   -0.8639    3.4561   -0.8564 H   0  0  0  0  0  0  0  0  0  0  0  0
   -2.2346   -0.7481    1.1943 H   0  0  0  0  0  0  0  0  0  0  0  0
   -1.5170   -1.1473   -0.3917 H   0  0  0  0  0  0  0  0  0  0  0  0
   -3.6925   -2.2072   -0.2985 H   0  0  0  0  0  0  0  0  0  0  0  0
   -4.5107    0.1668    1.3330 H   0  0  0  0  0  0  0  0  0  0  0  0
   -5.7592   -2.1817    0.1689 H   0  0  0  0  0  0  0  0  0  0  0  0
   -6.3076    0.0273   -1.0932 H   0  0  0  0  0  0  0  0  0  0  0  0
   -5.8711    2.1535   -0.9396 H   0  0  0  0  0  0  0  0  0  0  0  0
   -3.5512    0.2310   -2.0866 H   0  0  0  0  0  0  0  0  0  0  0  0
   -4.0305   -2.0406   -2.7140 H   0  0  0  0  0  0  0  0  0  0  0  0
  1  2  1  0
  2  3  1  0
  3  4  1  0
  4  5  1  0
  5  6  1  0
  6  7  1  0
  6  8  2  0
  6  9  1  0
  9 10  1  0
 10 11  1  0
 10 12  2  0
 10 13  1  0
 13 14  1  0
 14 15  1  0
 15 16  1  0
 16 17  1  0
 16 18  1  0
 18 19  1  0
 18 20  1  0
 20 21  1  0
  3 22  1  0
 22 23  1  0
 23 24  2  0
 23  2  1  0
 20 15  1  0
  1 25  1  0
  2 26  1  1
  3 27  1  6
  4 28  1  0
  4 29  1  0
  7 30  1  0
 11 31  1  0
 14 32  1  0
 14 33  1  0
 15 34  1  6
 16 35  1  1
 17 36  1  0
 18 37  1  6
 19 38  1  0
 20 39  1  6
 21 40  1  0
M  END
$$$$
[H]c1c([H])c([H])c(C(=O)N2C([H])([H])C([H])([H])C([H])([H])C([H])([H])C2([H])[H])c(OC([H])([H])[H])c1[H]
     RDKit          3D

 33 34  0  0  0  0  0  0  0  0999 V2000
   -2.4506   -2.7727    0.1296 C   0  0  0  0  0  0  0  0  0  0  0  0
   -1.7303   -1.6238    0.4892 O   0  0  0  0  0  0  0  0  0  0  0  0
   -2.1701   -0.3270    0.2206 C   0  0  0  0  0  0  0  0  0  0  0  0
   -3.3616   -0.0680   -0.4272 C   0  0  0  0  0  0  0  0  0  0  0  0
   -3.7764    1.2218   -0.6822 C   0  0  0  0  0  0  0  0  0  0  0  0
   -2.9544    2.2459   -0.2648 C   0  0  0  0  0  0  0  0  0  0  0  0
   -1.7647    1.9827    0.3822 C   0  0  0  0  0  0  0  0  0  0  0  0
   -1.3370    0.6973    0.6440 C   0  0  0  0  0  0  0  0  0  0  0  0
   -0.0723    0.4272    1.3316 C   0  0  0  0  0  0  0  0  0  0  0  0
   -0.1524    0.3525    2.6021 O   0  0  0  0  0  0  0  0  0  0  0  0
    1.1598    0.2593    0.6371 N   0  0  0  0  0  0  0  0  0  0  0  0
    1.1287    0.3647   -0.7927 C   0  0  0  0  0  0  0  0  0  0  0  0
    2.4647    0.4351   -1.4448 C   0  0  0  0  0  0  0  0  0  0  0  0
    3.3990   -0.5614   -0.7814 C   0  0  0  0  0  0  0  0  0  0  0  0
    3.5945   -0.1022    0.6380 C   0  0  0  0  0  0  0  0  0  0  0  0
    2.3372   -0.0025    1.4242 C   0  0  0  0  0  0  0  0  0  0  0  0
   -3.0270   -2.6751   -0.7955 H   0  0  0  0  0  0  0  0  0  0  0  0
   -3.1674   -2.9822    0.9742 H   0  0  0  0  0  0  0  0  0  0  0  0
   -1.7607   -3.6380   -0.0155 H   0  0  0  0  0  0  0  0  0  0  0  0
   -3.9943   -0.8769   -0.7480 H   0  0  0  0  0  0  0  0  0  0  0  0
   -4.7097    1.4476   -1.1902 H   0  0  0  0  0  0  0  0  0  0  0  0
   -3.2837    3.2700   -0.4672 H   0  0  0  0  0  0  0  0  0  0  0  0
   -1.1386    2.7999    0.6992 H   0  0  0  0  0  0  0  0  0  0  0  0
    0.5872   -0.5340   -1.2052 H   0  0  0  0  0  0  0  0  0  0  0  0
    0.5073    1.2366   -1.1457 H   0  0  0  0  0  0  0  0  0  0  0  0
    2.9306    1.4337   -1.3098 H   0  0  0  0  0  0  0  0  0  0  0  0
    2.3828    0.2468   -2.5141 H   0  0  0  0  0  0  0  0  0  0  0  0
    4.3718   -0.5406   -1.2956 H   0  0  0  0  0  0  0  0  0  0  0  0
    2.9727   -1.5772   -0.7576 H   0  0  0  0  0  0  0  0  0  0  0  0
    4.1404    0.8763    0.6749 H   0  0  0  0  0  0  0  0  0  0  0  0
    4.2768   -0.8248    1.1577 H   0  0  0  0  0  0  0  0  0  0  0  0
    2.1689   -0.9668    1.9536 H   0  0  0  0  0  0  0  0  0  0  0  0
    2.4287    0.7759    2.2064 H   0  0  0  0  0  0  0  0  0  0  0  0
  1  2  1  0
  2  3  1  0
  3  4  2  0
  4  5  1  0
  5  6  2  0
  6  7  1  0
  7  8  2  0
  8  9  1  0
  9 10  2  0
  9 11  1  0
 11 12  1  0
 12 13  1  0
 13 14  1  0
 14 15  1  0
 15 16  1  0
  8  3  1  0
 16 11  1  0
  1 17  1  0
  1 18  1  0
  1 19  1  0
  4 20  1  0
  5 21  1  0
  6 22  1  0
  7 23  1  0
 12 24  1  0
 12 25  1  0
 13 26  1  0
 13 27  1  0
 14 28  1  0
 14 29  1  0
 15 30  1  0
 15 31  1  0
 16 32  1  0
 16 33  1  0
M  END
$$$$
[H]c1c([H])c([H])c2c(c1[H])c1c3c(c4c5c([H])c([H])c([H])c([H])c5n5c4c1n2[C@]1([H])O[C@]5(C([H])([H])[H])[C@]([H])(OC([H])([H])[H])[C@@]([H])(N([H])C([H])([H])[H])C1([H])[H])C([H])([H])N([H])C3=O
     RDKit          3D

 61 68  0  0  0  0  0  0  0  0999 V2000
   -4.6729    2.4704    0.6701 C   0  0  0  0  0  0  0  0  0  0  0  0
   -3.9561    1.2431    0.7989 N   0  0  0  0  0  0  0  0  0  0  0  0
   -3.1827    0.9142   -0.3838 C   0  0  1  0  0  0  0  0  0  0  0  0
   -2.1402    2.0723   -0.5185 C   0  0  0  0  0  0  0  0  0  0  0  0
   -0.9578    1.3809   -0.4239 C   0  0  1  0  0  0  0  0  0  0  0  0
   -1.0012    0.5004   -1.5008 O   0  0  0  0  0  0  0  0  0  0  0  0
   -1.3700   -0.7676   -0.9505 C   0  0  2  0  0  0  0  0  0  0  0  0
   -1.7787   -1.5242   -2.2382 C   0  0  0  0  0  0  0  0  0  0  0  0
   -2.4988   -0.4528   -0.0976 C   0  0  2  0  0  0  0  0  0  0  0  0
   -3.5516   -1.3395   -0.4711 O   0  0  0  0  0  0  0  0  0  0  0  0
   -4.0462   -2.0650    0.5660 C   0  0  0  0  0  0  0  0  0  0  0  0
   -0.1182   -1.2988   -0.4529 N   0  0  0  0  0  0  0  0  0  0  0  0
    0.2026   -2.6147   -0.3684 C   0  0  0  0  0  0  0  0  0  0  0  0
   -0.5266   -3.7517   -0.5683 C   0  0  0  0  0  0  0  0  0  0  0  0
    0.0524   -5.0036   -0.4051 C   0  0  0  0  0  0  0  0  0  0  0  0
    1.3926   -5.1477   -0.0325 C   0  0  0  0  0  0  0  0  0  0  0  0
    2.1371   -4.0052    0.1725 C   0  0  0  0  0  0  0  0  0  0  0  0
    1.5289   -2.7803    0.0012 C   0  0  0  0  0  0  0  0  0  0  0  0
    2.0485   -1.5465    0.1558 C   0  0  0  0  0  0  0  0  0  0  0  0
    3.3025   -1.0014    0.4712 C   0  0  0  0  0  0  0  0  0  0  0  0
    4.5400   -1.7303    0.7940 C   0  0  0  0  0  0  0  0  0  0  0  0
    5.5206   -0.7063    1.0489 N   0  0  0  0  0  0  0  0  0  0  0  0
    4.9204    0.5944    0.8755 C   0  0  0  0  0  0  0  0  0  0  0  0
    5.6103    1.6121    1.0433 O   0  0  0  0  0  0  0  0  0  0  0  0
    3.5413    0.3604    0.5176 C   0  0  0  0  0  0  0  0  0  0  0  0
    2.5227    1.2647    0.2507 C   0  0  0  0  0  0  0  0  0  0  0  0
    2.3682    2.6229    0.2472 C   0  0  0  0  0  0  0  0  0  0  0  0
    3.2205    3.6549    0.4650 C   0  0  0  0  0  0  0  0  0  0  0  0
    2.7083    4.9621    0.3758 C   0  0  0  0  0  0  0  0  0  0  0  0
    1.3816    5.1770    0.0757 C   0  0  0  0  0  0  0  0  0  0  0  0
    0.5187    4.1120   -0.1455 C   0  0  0  0  0  0  0  0  0  0  0  0
    1.0401    2.8494   -0.0530 C   0  0  0  0  0  0  0  0  0  0  0  0
    0.3949    1.7020   -0.2301 N   0  0  0  0  0  0  0  0  0  0  0  0
    1.3072    0.7097   -0.0536 C   0  0  0  0  0  0  0  0  0  0  0  0
    1.0653   -0.6739   -0.1093 C   0  0  0  0  0  0  0  0  0  0  0  0
   -4.1378    3.2896    1.1811 H   0  0  0  0  0  0  0  0  0  0  0  0
   -4.9117    2.6802   -0.3866 H   0  0  0  0  0  0  0  0  0  0  0  0
   -5.6527    2.3385    1.2050 H   0  0  0  0  0  0  0  0  0  0  0  0
   -3.2976    1.2798    1.6344 H   0  0  0  0  0  0  0  0  0  0  0  0
   -3.8488    0.8666   -1.2338 H   0  0  0  0  0  0  0  0  0  0  0  0
   -2.3900    2.5503   -1.5008 H   0  0  0  0  0  0  0  0  0  0  0  0
   -2.3278    2.8494    0.2401 H   0  0  0  0  0  0  0  0  0  0  0  0
   -1.1232    0.8155    0.6063 H   0  0  0  0  0  0  0  0  0  0  0  0
   -2.0290   -0.8100   -3.0632 H   0  0  0  0  0  0  0  0  0  0  0  0
   -0.9380   -2.1222   -2.6367 H   0  0  0  0  0  0  0  0  0  0  0  0
   -2.6973   -2.1123   -2.1005 H   0  0  0  0  0  0  0  0  0  0  0  0
   -2.3910   -0.6283    0.9834 H   0  0  0  0  0  0  0  0  0  0  0  0
   -3.2245   -2.6856    1.0089 H   0  0  0  0  0  0  0  0  0  0  0  0
   -4.7508   -2.8108    0.1278 H   0  0  0  0  0  0  0  0  0  0  0  0
   -4.5876   -1.5274    1.3339 H   0  0  0  0  0  0  0  0  0  0  0  0
   -1.5381   -3.7221   -0.8394 H   0  0  0  0  0  0  0  0  0  0  0  0
   -0.5262   -5.8823   -0.5635 H   0  0  0  0  0  0  0  0  0  0  0  0
    1.8193   -6.1363    0.0880 H   0  0  0  0  0  0  0  0  0  0  0  0
    3.1750   -4.0914    0.4618 H   0  0  0  0  0  0  0  0  0  0  0  0
    4.3470   -2.2880    1.7377 H   0  0  0  0  0  0  0  0  0  0  0  0
    4.8560   -2.4302   -0.0043 H   0  0  0  0  0  0  0  0  0  0  0  0
    6.5043   -0.9356    1.3160 H   0  0  0  0  0  0  0  0  0  0  0  0
    4.2542    3.5201    0.6968 H   0  0  0  0  0  0  0  0  0  0  0  0
    3.4136    5.7638    0.5555 H   0  0  0  0  0  0  0  0  0  0  0  0
    0.9998    6.1818    0.0099 H   0  0  0  0  0  0  0  0  0  0  0  0
   -0.5210    4.2535   -0.3844 H   0  0  0  0  0  0  0  0  0  0  0  0
  1  2  1  0
  2  3  1  0
  3  4  1  0
  4  5  1  0
  5  6  1  0
  6  7  1  0
  7  8  1  6
  7  9  1  0
  9 10  1  0
 10 11  1  0
  7 12  1  0
 12 13  1  0
 13 14  2  0
 14 15  1  0
 15 16  2  0
 16 17  1  0
 17 18  2  0
 18 19  1  0
 19 20  2  0
 20 21  1  0
 21 22  1  0
 22 23  1  0
 23 24  2  0
 23 25  1  0
 25 26  2  0
 26 27  1  0
 27 28  2  0
 28 29  1  0
 29 30  2  0
 30 31  1  0
 31 32  2  0
 32 33  1  0
 33 34  1  0
 34 35  2  0
  9  3  1  0
 35 12  1  0
 33  5  1  0
 18 13  1  0
 35 19  1  0
 25 20  1  0
 34 26  1  0
 32 27  1  0
  1 36  1  0
  1 37  1  0
  1 38  1  0
  2 39  1  0
  3 40  1  6
  4 41  1  0
  4 42  1  0
  5 43  1  1
  8 44  1  0
  8 45  1  0
  8 46  1  0
  9 47  1  1
 11 48  1  0
 11 49  1  0
 11 50  1  0
 14 51  1  0
 15 52  1  0
 16 53  1  0
 17 54  1  0
 21 55  1  0
 21 56  1  0
 22 57  1  0
 28 58  1  0
 29 59  1  0
 30 60  1  0
 31 61  1  0
M  END
$$$$
[H]c1c([H])c(N([H])C(=O)N([H])c2c([H])c([H])c(Cl)c(C(F)(F)F)c2[H])c([H])c(OC([H])([H])[H])c1Cl
     RDKit          3D

 35 36  0  0  0  0  0  0  0  0999 V2000
   -4.7667    2.5680   -1.4743 C   0  0  0  0  0  0  0  0  0  0  0  0
   -5.1567    2.2246   -0.1735 O   0  0  0  0  0  0  0  0  0  0  0  0
   -4.2530    1.6189    0.6802 C   0  0  0  0  0  0  0  0  0  0  0  0
   -2.9683    1.3736    0.2339 C   0  0  0  0  0  0  0  0  0  0  0  0
   -2.0519    0.7569    1.1041 C   0  0  0  0  0  0  0  0  0  0  0  0
   -0.7194    0.5454    0.7316 N   0  0  0  0  0  0  0  0  0  0  0  0
   -0.2230   -0.8529    0.6947 C   0  0  0  0  0  0  0  0  0  0  0  0
   -1.1049   -1.6855    0.9801 O   0  0  0  0  0  0  0  0  0  0  0  0
    1.0603   -1.0636    0.3728 N   0  0  0  0  0  0  0  0  0  0  0  0
    2.3676   -1.2791    0.0449 C   0  0  0  0  0  0  0  0  0  0  0  0
    3.2656   -1.8786    0.9287 C   0  0  0  0  0  0  0  0  0  0  0  0
    4.5933   -2.0825    0.6446 C   0  0  0  0  0  0  0  0  0  0  0  0
    5.0164   -1.6485   -0.6138 C   0  0  0  0  0  0  0  0  0  0  0  0
    6.6979   -1.8566   -1.0480 Cl  0  0  0  0  0  0  0  0  0  0  0  0
    4.1908   -1.0550   -1.5271 C   0  0  0  0  0  0  0  0  0  0  0  0
    2.8751   -0.8768   -1.1886 C   0  0  0  0  0  0  0  0  0  0  0  0
    4.7209   -0.6116   -2.8747 C   0  0  0  0  0  0  0  0  0  0  0  0
    5.7047    0.3300   -2.5720 F   0  0  0  0  0  0  0  0  0  0  0  0
    5.3582   -1.6825   -3.4679 F   0  0  0  0  0  0  0  0  0  0  0  0
    3.6733   -0.1235   -3.5848 F   0  0  0  0  0  0  0  0  0  0  0  0
   -2.4099    0.3940    2.3858 C   0  0  0  0  0  0  0  0  0  0  0  0
   -3.6878    0.6393    2.8226 C   0  0  0  0  0  0  0  0  0  0  0  0
   -4.5873    1.2476    1.9636 C   0  0  0  0  0  0  0  0  0  0  0  0
   -6.2317    1.5758    2.4775 Cl  0  0  0  0  0  0  0  0  0  0  0  0
   -5.7247    2.6567   -2.0600 H   0  0  0  0  0  0  0  0  0  0  0  0
   -4.2939    1.6352   -1.9442 H   0  0  0  0  0  0  0  0  0  0  0  0
   -4.1399    3.4429   -1.5697 H   0  0  0  0  0  0  0  0  0  0  0  0
   -2.6325    1.6378   -0.7563 H   0  0  0  0  0  0  0  0  0  0  0  0
   -0.0602    1.3056    0.4863 H   0  0  0  0  0  0  0  0  0  0  0  0
    0.8424   -2.4145    0.4181 H   0  0  0  0  0  0  0  0  0  0  0  0
    2.8261   -2.1766    1.8703 H   0  0  0  0  0  0  0  0  0  0  0  0
    5.2812   -2.5526    1.3399 H   0  0  0  0  0  0  0  0  0  0  0  0
    2.2244   -0.4027   -1.9109 H   0  0  0  0  0  0  0  0  0  0  0  0
   -1.7001   -0.0874    3.0637 H   0  0  0  0  0  0  0  0  0  0  0  0
   -3.9864    0.3783    3.8216 H   0  0  0  0  0  0  0  0  0  0  0  0
  1  2  1  0
  2  3  1  0
  3  4  2  0
  4  5  1  0
  5  6  1  0
  6  7  1  0
  7  8  2  0
  7  9  1  0
  9 10  1  0
 10 11  2  0
 11 12  1  0
 12 13  2  0
 13 14  1  0
 13 15  1  0
 15 16  2  0
 15 17  1  0
 17 18  1  0
 17 19  1  0
 17 20  1  0
  5 21  2  0
 21 22  1  0
 22 23  2  0
 23 24  1  0
 23  3  1  0
 16 10  1  0
  1 25  1  0
  1 26  1  0
  1 27  1  0
  4 28  1  0
  6 29  1  0
  9 30  1  0
 11 31  1  0
 12 32  1  0
 16 33  1  0
 21 34  1  0
 22 35  1  0
M  END
$$$$
[H]OC(=O)[C@@]([H])(N([H])C(=O)[C@@]([H])(N([H])C(=O)[C@@]([H])(N([H])[H])C([H])([H])C([H])([H])c1c([H])c([H])c([H])c([H])c1[H])[C@@]([H])(C([H])([H])[H])C([H])([H])C([H])([H])[H])C([H])([H])c1c([H])c([H])c([H])c([H])c1[H]
     RDKit          3D

 65 66  0  0  0  0  0  0  0  0999 V2000
    1.3462    4.5454   -0.6800 C   0  0  0  0  0  0  0  0  0  0  0  0
    1.5003    4.0271    0.7344 C   0  0  0  0  0  0  0  0  0  0  0  0
    0.3254    3.1520    1.0814 C   0  0  2  0  0  0  0  0  0  0  0  0
    0.4762    2.6590    2.5155 C   0  0  0  0  0  0  0  0  0  0  0  0
    0.1002    1.9951    0.1427 C   0  0  2  0  0  0  0  0  0  0  0  0
   -1.1123    1.3156    0.6435 N   0  0  0  0  0  0  0  0  0  0  0  0
   -2.2295    1.3028   -0.2075 C   0  0  0  0  0  0  0  0  0  0  0  0
   -2.2210    1.8267   -1.3209 O   0  0  0  0  0  0  0  0  0  0  0  0
   -3.4796    0.6130    0.2846 C   0  0  1  0  0  0  0  0  0  0  0  0
   -4.4285    0.7770   -0.8110 N   0  0  0  0  0  0  0  0  0  0  0  0
   -3.0791   -0.7915    0.5422 C   0  0  0  0  0  0  0  0  0  0  0  0
   -4.0770   -1.7356    1.0705 C   0  0  0  0  0  0  0  0  0  0  0  0
   -5.2340   -1.9018    0.2039 C   0  0  0  0  0  0  0  0  0  0  0  0
   -5.1360   -2.8013   -0.8566 C   0  0  0  0  0  0  0  0  0  0  0  0
   -6.2299   -2.9990   -1.6548 C   0  0  0  0  0  0  0  0  0  0  0  0
   -7.4110   -2.3171   -1.4118 C   0  0  0  0  0  0  0  0  0  0  0  0
   -7.4848   -1.4349   -0.3604 C   0  0  0  0  0  0  0  0  0  0  0  0
   -6.4059   -1.2184    0.4537 C   0  0  0  0  0  0  0  0  0  0  0  0
    1.1564    0.9807    0.1107 C   0  0  0  0  0  0  0  0  0  0  0  0
    0.8326   -0.1840    0.5561 O   0  0  0  0  0  0  0  0  0  0  0  0
    2.4716    1.1030   -0.3396 N   0  0  0  0  0  0  0  0  0  0  0  0
    3.3537   -0.0879   -0.2624 C   0  0  1  0  0  0  0  0  0  0  0  0
    3.7957   -0.4740   -1.6276 C   0  0  0  0  0  0  0  0  0  0  0  0
    4.6726   -1.6517   -1.6609 C   0  0  0  0  0  0  0  0  0  0  0  0
    4.1024   -2.9164   -1.6790 C   0  0  0  0  0  0  0  0  0  0  0  0
    4.8436   -4.0624   -1.7450 C   0  0  0  0  0  0  0  0  0  0  0  0
    6.2159   -3.9704   -1.7962 C   0  0  0  0  0  0  0  0  0  0  0  0
    6.8183   -2.7235   -1.7800 C   0  0  0  0  0  0  0  0  0  0  0  0
    6.0510   -1.5838   -1.7132 C   0  0  0  0  0  0  0  0  0  0  0  0
    4.4538    0.2620    0.6373 C   0  0  0  0  0  0  0  0  0  0  0  0
    5.4255   -0.6241    1.0276 O   0  0  0  0  0  0  0  0  0  0  0  0
    4.5400    1.4339    1.0993 O   0  0  0  0  0  0  0  0  0  0  0  0
    0.2930    4.3717   -1.0183 H   0  0  0  0  0  0  0  0  0  0  0  0
    2.0385    4.0367   -1.3762 H   0  0  0  0  0  0  0  0  0  0  0  0
    1.5114    5.6354   -0.7005 H   0  0  0  0  0  0  0  0  0  0  0  0
    2.4577    3.5409    0.9288 H   0  0  0  0  0  0  0  0  0  0  0  0
    1.4128    4.9320    1.4123 H   0  0  0  0  0  0  0  0  0  0  0  0
   -0.5801    3.7780    1.0618 H   0  0  0  0  0  0  0  0  0  0  0  0
   -0.5530    2.4421    2.8746 H   0  0  0  0  0  0  0  0  0  0  0  0
    0.8939    3.4218    3.1725 H   0  0  0  0  0  0  0  0  0  0  0  0
    1.0181    1.7081    2.4964 H   0  0  0  0  0  0  0  0  0  0  0  0
   -0.0980    2.3798   -0.8484 H   0  0  0  0  0  0  0  0  0  0  0  0
   -1.0345    0.9015    1.5907 H   0  0  0  0  0  0  0  0  0  0  0  0
   -3.8176    1.1255    1.2048 H   0  0  0  0  0  0  0  0  0  0  0  0
   -3.8791    0.5658   -1.6836 H   0  0  0  0  0  0  0  0  0  0  0  0
   -4.7673    1.7400   -0.8807 H   0  0  0  0  0  0  0  0  0  0  0  0
   -2.2351   -0.7445    1.3075 H   0  0  0  0  0  0  0  0  0  0  0  0
   -2.5664   -1.1556   -0.3865 H   0  0  0  0  0  0  0  0  0  0  0  0
   -3.5821   -2.7413    1.2176 H   0  0  0  0  0  0  0  0  0  0  0  0
   -4.3765   -1.4027    2.1132 H   0  0  0  0  0  0  0  0  0  0  0  0
   -4.2299   -3.3430   -1.0660 H   0  0  0  0  0  0  0  0  0  0  0  0
   -6.1856   -3.6940   -2.4902 H   0  0  0  0  0  0  0  0  0  0  0  0
   -8.2621   -2.4985   -2.0674 H   0  0  0  0  0  0  0  0  0  0  0  0
   -8.4118   -0.9034   -0.1741 H   0  0  0  0  0  0  0  0  0  0  0  0
   -6.4357   -0.5344    1.2831 H   0  0  0  0  0  0  0  0  0  0  0  0
    2.9379    1.9275   -0.7377 H   0  0  0  0  0  0  0  0  0  0  0  0
    2.7871   -0.9299    0.1915 H   0  0  0  0  0  0  0  0  0  0  0  0
    4.3413    0.3996   -2.0909 H   0  0  0  0  0  0  0  0  0  0  0  0
    2.9528   -0.6844   -2.3198 H   0  0  0  0  0  0  0  0  0  0  0  0
    3.0126   -2.9831   -1.6380 H   0  0  0  0  0  0  0  0  0  0  0  0
    4.3608   -5.0478   -1.7576 H   0  0  0  0  0  0  0  0  0  0  0  0
    6.8363   -4.8441   -1.8487 H   0  0  0  0  0  0  0  0  0  0  0  0
    7.9069   -2.6805   -1.8216 H   0  0  0  0  0  0  0  0  0  0  0  0
    6.5473   -0.6175   -1.7018 H   0  0  0  0  0  0  0  0  0  0  0  0
    5.7533   -0.6174    1.9792 H   0  0  0  0  0  0  0  0  0  0  0  0
  1  2  1  0
  2  3  1  0
  3  4  1  0
  3  5  1  0
  5  6  1  0
  6  7  1  0
  7  8  2  0
  7  9  1  0
  9 10  1  0
  9 11  1  0
 11 12  1  0
 12 13  1  0
 13 14  2  0
 14 15  1  0
 15 16  2  0
 16 17  1  0
 17 18  2  0
  5 19  1  0
 19 20  2  0
 19 21  1  0
 21 22  1  0
 22 23  1  0
 23 24  1  0
 24 25  2  0
 25 26  1  0
 26 27  2  0
 27 28  1  0
 28 29  2  0
 22 30  1  0
 30 31  1  0
 30 32  2  0
 18 13  1  0
 29 24  1  0
  1 33  1  0
  1 34  1  0
  1 35  1  0
  2 36  1  0
  2 37  1  0
  3 38  1  1
  4 39  1  0
  4 40  1  0
  4 41  1  0
  5 42  1  6
  6 43  1  0
  9 44  1  1
 10 45  1  0
 10 46  1  0
 11 47  1  0
 11 48  1  0
 12 49  1  0
 12 50  1  0
 14 51  1  0
 15 52  1  0
 16 53  1  0
 17 54  1  0
 18 55  1  0
 21 56  1  0
 22 57  1  1
 23 58  1  0
 23 59  1  0
 25 60  1  0
 26 61  1  0
 27 62  1  0
 28 63  1  0
 29 64  1  0
 31 65  1  0
M  END
$$$$
[H]c1nc2c(-c3c([H])c([H])c([H])c4c([H])c([H])c(N([H])C(=O)c5sc6c([H])c([H])c(C(=O)OC([H])([H])[H])c([H])c6c5[H])c([H])c34)c([H])c([H])nc2c([H])c1[H]
     RDKit          3D

 55 60  0  0  0  0  0  0  0  0999 V2000
   10.5247   -0.1707    0.8017 C   0  0  0  0  0  0  0  0  0  0  0  0
    9.2762    0.4576    0.6356 O   0  0  0  0  0  0  0  0  0  0  0  0
    8.1143   -0.2571    0.5131 C   0  0  0  0  0  0  0  0  0  0  0  0
    8.1720   -1.5091    0.5518 O   0  0  0  0  0  0  0  0  0  0  0  0
    6.8266    0.4590    0.3377 C   0  0  0  0  0  0  0  0  0  0  0  0
    6.8587    1.8293    0.3223 C   0  0  0  0  0  0  0  0  0  0  0  0
    5.6495    2.4637    0.1469 C   0  0  0  0  0  0  0  0  0  0  0  0
    4.4559    1.7335   -0.0062 C   0  0  0  0  0  0  0  0  0  0  0  0
    2.8108    2.1325   -0.2453 S   0  0  0  0  0  0  0  0  0  0  0  0
    2.1568    0.5634   -0.3156 C   0  0  0  0  0  0  0  0  0  0  0  0
    3.2486   -0.2389   -0.1483 C   0  0  0  0  0  0  0  0  0  0  0  0
    4.4388    0.3657    0.0115 C   0  0  0  0  0  0  0  0  0  0  0  0
    5.6872   -0.2546    0.1921 C   0  0  0  0  0  0  0  0  0  0  0  0
    0.7368    0.1608   -0.5246 C   0  0  0  0  0  0  0  0  0  0  0  0
   -0.1002    1.1124   -0.6722 O   0  0  0  0  0  0  0  0  0  0  0  0
    0.3650   -1.1676   -0.5545 N   0  0  0  0  0  0  0  0  0  0  0  0
   -0.9288   -1.6934   -0.7409 C   0  0  0  0  0  0  0  0  0  0  0  0
   -1.0735   -3.0778   -0.9883 C   0  0  0  0  0  0  0  0  0  0  0  0
   -2.2958   -3.6526   -1.1687 C   0  0  0  0  0  0  0  0  0  0  0  0
   -3.4416   -2.8664   -1.1105 C   0  0  0  0  0  0  0  0  0  0  0  0
   -4.6871   -3.4871   -1.2817 C   0  0  0  0  0  0  0  0  0  0  0  0
   -5.8139   -2.7042   -1.2060 C   0  0  0  0  0  0  0  0  0  0  0  0
   -5.7789   -1.3595   -0.9745 C   0  0  0  0  0  0  0  0  0  0  0  0
   -4.5027   -0.7758   -0.8090 C   0  0  0  0  0  0  0  0  0  0  0  0
   -3.3417   -1.5112   -0.8721 C   0  0  0  0  0  0  0  0  0  0  0  0
   -2.0572   -0.9610   -0.6901 C   0  0  0  0  0  0  0  0  0  0  0  0
   -4.4457    0.6539   -0.6399 C   0  0  0  0  0  0  0  0  0  0  0  0
   -3.7804    1.4931   -1.4934 C   0  0  0  0  0  0  0  0  0  0  0  0
   -3.8156    2.8562   -1.3318 C   0  0  0  0  0  0  0  0  0  0  0  0
   -4.5194    3.3740   -0.3130 N   0  0  0  0  0  0  0  0  0  0  0  0
   -5.1863    2.5627    0.5446 C   0  0  0  0  0  0  0  0  0  0  0  0
   -5.9113    3.1066    1.5925 C   0  0  0  0  0  0  0  0  0  0  0  0
   -6.6023    2.3071    2.4833 C   0  0  0  0  0  0  0  0  0  0  0  0
   -6.5579    0.9517    2.3111 C   0  0  0  0  0  0  0  0  0  0  0  0
   -5.8534    0.4464    1.2938 N   0  0  0  0  0  0  0  0  0  0  0  0
   -5.1625    1.1979    0.3993 C   0  0  0  0  0  0  0  0  0  0  0  0
   10.8955   -0.0905    1.8334 H   0  0  0  0  0  0  0  0  0  0  0  0
   11.2560    0.2710    0.0725 H   0  0  0  0  0  0  0  0  0  0  0  0
   10.4458   -1.2486    0.5413 H   0  0  0  0  0  0  0  0  0  0  0  0
    7.7654    2.3595    0.4387 H   0  0  0  0  0  0  0  0  0  0  0  0
    5.5402    3.5351    0.1138 H   0  0  0  0  0  0  0  0  0  0  0  0
    3.0938   -1.3454   -0.1548 H   0  0  0  0  0  0  0  0  0  0  0  0
    5.7860   -1.3420    0.2219 H   0  0  0  0  0  0  0  0  0  0  0  0
    1.1805   -1.8669   -0.4119 H   0  0  0  0  0  0  0  0  0  0  0  0
   -0.1792   -3.6653   -1.0297 H   0  0  0  0  0  0  0  0  0  0  0  0
   -2.4203   -4.7121   -1.3591 H   0  0  0  0  0  0  0  0  0  0  0  0
   -4.7194   -4.5580   -1.4686 H   0  0  0  0  0  0  0  0  0  0  0  0
   -6.7741   -3.1907   -1.3393 H   0  0  0  0  0  0  0  0  0  0  0  0
   -6.6299   -0.7028   -0.9064 H   0  0  0  0  0  0  0  0  0  0  0  0
   -2.0793    0.0969   -0.4700 H   0  0  0  0  0  0  0  0  0  0  0  0
   -3.1942    1.1337   -2.3384 H   0  0  0  0  0  0  0  0  0  0  0  0
   -3.2730    3.5076   -2.0305 H   0  0  0  0  0  0  0  0  0  0  0  0
   -5.9216    4.1824    1.6947 H   0  0  0  0  0  0  0  0  0  0  0  0
   -7.1618    2.7927    3.2978 H   0  0  0  0  0  0  0  0  0  0  0  0
   -7.0760    0.3028    2.9762 H   0  0  0  0  0  0  0  0  0  0  0  0
  1  2  1  0
  2  3  1  0
  3  4  2  0
  3  5  1  0
  5  6  2  0
  6  7  1  0
  7  8  2  0
  8  9  1  0
  9 10  1  0
 10 11  2  0
 11 12  1  0
 12 13  2  0
 10 14  1  0
 14 15  2  0
 14 16  1  0
 16 17  1  0
 17 18  2  0
 18 19  1  0
 19 20  2  0
 20 21  1  0
 21 22  2  0
 22 23  1  0
 23 24  2  0
 24 25  1  0
 25 26  2  0
 24 27  1  0
 27 28  2  0
 28 29  1  0
 29 30  2  0
 30 31  1  0
 31 32  2  0
 32 33  1  0
 33 34  2  0
 34 35  1  0
 35 36  2  0
 13  5  1  0
 26 17  1  0
 36 27  1  0
 12  8  1  0
 25 20  1  0
 36 31  1  0
  1 37  1  0
  1 38  1  0
  1 39  1  0
  6 40  1  0
  7 41  1  0
 11 42  1  0
 13 43  1  0
 16 44  1  0
 18 45  1  0
 19 46  1  0
 21 47  1  0
 22 48  1  0
 23 49  1  0
 26 50  1  0
 28 51  1  0
 29 52  1  0
 32 53  1  0
 33 54  1  0
 34 55  1  0
M  END
$$$$
[H]c1c([H])c([H])c([C@]([H])(N([H])C(=O)c2c([H])c(C(F)(F)F)c([H])c(C(F)(F)F)c2[H])C([H])([H])[H])c([H])c1[H]
     RDKit          3D

 38 39  0  0  0  0  0  0  0  0999 V2000
    2.0976   -2.2189   -0.5394 C   0  0  0  0  0  0  0  0  0  0  0  0
    1.9491   -0.6862   -0.3390 C   0  0  1  0  0  0  0  0  0  0  0  0
    0.7190   -0.4744    0.3186 N   0  0  0  0  0  0  0  0  0  0  0  0
   -0.3702   -0.0417   -0.4782 C   0  0  0  0  0  0  0  0  0  0  0  0
   -0.0837    0.1503   -1.7394 O   0  0  0  0  0  0  0  0  0  0  0  0
   -1.7285    0.2050   -0.1285 C   0  0  0  0  0  0  0  0  0  0  0  0
   -2.2832    1.4262    0.0336 C   0  0  0  0  0  0  0  0  0  0  0  0
   -3.6396    1.5951    0.2604 C   0  0  0  0  0  0  0  0  0  0  0  0
   -4.4603    0.4705    0.3312 C   0  0  0  0  0  0  0  0  0  0  0  0
   -3.9007   -0.7752    0.1753 C   0  0  0  0  0  0  0  0  0  0  0  0
   -2.5675   -0.8919   -0.0469 C   0  0  0  0  0  0  0  0  0  0  0  0
   -4.7604   -2.0297    0.2296 C   0  0  0  0  0  0  0  0  0  0  0  0
   -6.0672   -1.7022    0.4140 F   0  0  0  0  0  0  0  0  0  0  0  0
   -4.2620   -2.8057    1.2428 F   0  0  0  0  0  0  0  0  0  0  0  0
   -4.5328   -2.7004   -0.9606 F   0  0  0  0  0  0  0  0  0  0  0  0
   -4.2256    2.9173    0.4375 C   0  0  0  0  0  0  0  0  0  0  0  0
   -3.8724    3.4318    1.7006 F   0  0  0  0  0  0  0  0  0  0  0  0
   -3.6111    3.8016   -0.4443 F   0  0  0  0  0  0  0  0  0  0  0  0
   -5.5700    2.9721    0.2437 F   0  0  0  0  0  0  0  0  0  0  0  0
    3.1907   -0.1200    0.1332 C   0  0  0  0  0  0  0  0  0  0  0  0
    4.3700   -0.8624   -0.0512 C   0  0  0  0  0  0  0  0  0  0  0  0
    5.6301   -0.3909    0.3177 C   0  0  0  0  0  0  0  0  0  0  0  0
    5.7895    0.8315    0.8897 C   0  0  0  0  0  0  0  0  0  0  0  0
    4.6417    1.5758    1.0948 C   0  0  0  0  0  0  0  0  0  0  0  0
    3.3984    1.1192    0.7306 C   0  0  0  0  0  0  0  0  0  0  0  0
    1.0410   -2.5794   -0.7277 H   0  0  0  0  0  0  0  0  0  0  0  0
    2.4964   -2.6072    0.4046 H   0  0  0  0  0  0  0  0  0  0  0  0
    2.6696   -2.3786   -1.4462 H   0  0  0  0  0  0  0  0  0  0  0  0
    1.8389   -0.3232   -1.4147 H   0  0  0  0  0  0  0  0  0  0  0  0
    0.5644   -0.5869    1.3520 H   0  0  0  0  0  0  0  0  0  0  0  0
   -1.6561    2.3079    0.0206 H   0  0  0  0  0  0  0  0  0  0  0  0
   -5.5208    0.6151    0.5368 H   0  0  0  0  0  0  0  0  0  0  0  0
   -2.1839   -1.9083   -0.1245 H   0  0  0  0  0  0  0  0  0  0  0  0
    4.3437   -1.8337   -0.4995 H   0  0  0  0  0  0  0  0  0  0  0  0
    6.5330   -0.9698    0.1539 H   0  0  0  0  0  0  0  0  0  0  0  0
    6.7476    1.2286    1.1759 H   0  0  0  0  0  0  0  0  0  0  0  0
    4.7706    2.5392    1.5768 H   0  0  0  0  0  0  0  0  0  0  0  0
    2.5047    1.6993    0.9650 H   0  0  0  0  0  0  0  0  0  0  0  0
  1  2  1  0
  2  3  1  0
  3  4  1  0
  4  5  2  0
  4  6  1  0
  6  7  2  0
  7  8  1  0
  8  9  2  0
  9 10  1  0
 10 11  2  0
 10 12  1  0
 12 13  1  0
 12 14  1  0
 12 15  1  0
  8 16  1  0
 16 17  1  0
 16 18  1  0
 16 19  1  0
  2 20  1  0
 20 21  2  0
 21 22  1  0
 22 23  2  0
 23 24  1  0
 24 25  2  0
 11  6  1  0
 25 20  1  0
  1 26  1  0
  1 27  1  0
  1 28  1  0
  2 29  1  6
  3 30  1  0
  7 31  1  0
  9 32  1  0
 11 33  1  0
 21 34  1  0
 22 35  1  0
 23 36  1  0
 24 37  1  0
 25 38  1  0
M  END
$$$$
[H]c1nc2c(N([H])C3([H])C([H])([H])C3([H])[H])nc(N([H])c3c([H])c(C#N)c(Cl)c(N4C([H])([H])C([H])([H])N(C([H])([H])[H])C([H])([H])C4([H])[H])c3[H])nn2c1C#N
     RDKit          3D

 53 57  0  0  0  0  0  0  0  0999 V2000
    7.0582   -1.3776    1.0023 C   0  0  0  0  0  0  0  0  0  0  0  0
    5.9624   -1.9276    0.2801 N   0  0  0  0  0  0  0  0  0  0  0  0
    5.6927   -1.3915   -0.9997 C   0  0  0  0  0  0  0  0  0  0  0  0
    4.3977   -0.6773   -1.1817 C   0  0  0  0  0  0  0  0  0  0  0  0
    3.4048   -1.0758   -0.2094 N   0  0  0  0  0  0  0  0  0  0  0  0
    3.5576   -2.4138    0.3376 C   0  0  0  0  0  0  0  0  0  0  0  0
    4.8863   -2.4536    1.0314 C   0  0  0  0  0  0  0  0  0  0  0  0
    2.3458   -0.2234    0.1915 C   0  0  0  0  0  0  0  0  0  0  0  0
    1.0475   -0.5424   -0.1045 C   0  0  0  0  0  0  0  0  0  0  0  0
   -0.0433    0.2794    0.2638 C   0  0  0  0  0  0  0  0  0  0  0  0
   -1.3492   -0.1314   -0.0606 N   0  0  0  0  0  0  0  0  0  0  0  0
   -2.5289    0.6158   -0.1116 C   0  0  0  0  0  0  0  0  0  0  0  0
   -3.7105    0.0159   -0.4394 N   0  0  0  0  0  0  0  0  0  0  0  0
   -4.8760    0.6596   -0.5277 C   0  0  0  0  0  0  0  0  0  0  0  0
   -6.1134    0.0900   -0.8379 N   0  0  0  0  0  0  0  0  0  0  0  0
   -6.3332   -1.2681   -1.1571 C   0  0  0  0  0  0  0  0  0  0  0  0
   -5.7875   -2.3623   -0.3016 C   0  0  0  0  0  0  0  0  0  0  0  0
   -5.2549   -2.1519   -1.6770 C   0  0  0  0  0  0  0  0  0  0  0  0
   -4.8498    2.0411   -0.2603 C   0  0  0  0  0  0  0  0  0  0  0  0
   -5.8227    2.9605   -0.2616 N   0  0  0  0  0  0  0  0  0  0  0  0
   -5.3123    4.1437    0.0556 C   0  0  0  0  0  0  0  0  0  0  0  0
   -3.9474    3.9471    0.2652 C   0  0  0  0  0  0  0  0  0  0  0  0
   -2.9854    4.9508    0.6300 C   0  0  0  0  0  0  0  0  0  0  0  0
   -2.2064    5.7775    0.9302 N   0  0  0  0  0  0  0  0  0  0  0  0
   -3.6892    2.6391    0.0633 N   0  0  0  0  0  0  0  0  0  0  0  0
   -2.5809    1.9236    0.1277 N   0  0  0  0  0  0  0  0  0  0  0  0
    0.2681    1.4189    0.9374 C   0  0  0  0  0  0  0  0  0  0  0  0
    1.5895    1.7917    1.2658 C   0  0  0  0  0  0  0  0  0  0  0  0
    2.6052    0.9378    0.8724 C   0  0  0  0  0  0  0  0  0  0  0  0
    4.2549    1.3400    1.2622 Cl  0  0  0  0  0  0  0  0  0  0  0  0
    1.8391    3.0136    1.9797 C   0  0  0  0  0  0  0  0  0  0  0  0
    2.0443    3.9936    2.5538 N   0  0  0  0  0  0  0  0  0  0  0  0
    7.0340   -0.2688    1.1046 H   0  0  0  0  0  0  0  0  0  0  0  0
    7.9977   -1.6528    0.4800 H   0  0  0  0  0  0  0  0  0  0  0  0
    7.0161   -1.7720    2.0419 H   0  0  0  0  0  0  0  0  0  0  0  0
    5.8359   -2.2013   -1.7667 H   0  0  0  0  0  0  0  0  0  0  0  0
    6.5010   -0.6283   -1.2108 H   0  0  0  0  0  0  0  0  0  0  0  0
    4.5090    0.4241   -1.2142 H   0  0  0  0  0  0  0  0  0  0  0  0
    3.9744   -1.0408   -2.1731 H   0  0  0  0  0  0  0  0  0  0  0  0
    3.6034   -3.1094   -0.5185 H   0  0  0  0  0  0  0  0  0  0  0  0
    2.7808   -2.6607    1.0755 H   0  0  0  0  0  0  0  0  0  0  0  0
    5.1038   -3.5403    1.2513 H   0  0  0  0  0  0  0  0  0  0  0  0
    4.8199   -1.9879    2.0585 H   0  0  0  0  0  0  0  0  0  0  0  0
    0.8226   -1.4457   -0.6361 H   0  0  0  0  0  0  0  0  0  0  0  0
   -1.4804   -1.1776   -0.3089 H   0  0  0  0  0  0  0  0  0  0  0  0
   -6.9829    0.7271   -0.8355 H   0  0  0  0  0  0  0  0  0  0  0  0
   -7.3942   -1.4805   -1.5559 H   0  0  0  0  0  0  0  0  0  0  0  0
   -6.4802   -3.1839   -0.0582 H   0  0  0  0  0  0  0  0  0  0  0  0
   -5.1338   -2.0125    0.5255 H   0  0  0  0  0  0  0  0  0  0  0  0
   -5.6050   -2.8505   -2.4924 H   0  0  0  0  0  0  0  0  0  0  0  0
   -4.2130   -1.8969   -1.7906 H   0  0  0  0  0  0  0  0  0  0  0  0
   -5.7699    5.1149    0.1575 H   0  0  0  0  0  0  0  0  0  0  0  0
   -0.5024    2.1004    1.2720 H   0  0  0  0  0  0  0  0  0  0  0  0
  1  2  1  0
  2  3  1  0
  3  4  1  0
  4  5  1  0
  5  6  1  0
  6  7  1  0
  5  8  1  0
  8  9  2  0
  9 10  1  0
 10 11  1  0
 11 12  1  0
 12 13  1  0
 13 14  2  0
 14 15  1  0
 15 16  1  0
 16 17  1  0
 17 18  1  0
 14 19  1  0
 19 20  2  0
 20 21  1  0
 21 22  2  0
 22 23  1  0
 23 24  3  0
 22 25  1  0
 25 26  1  0
 10 27  2  0
 27 28  1  0
 28 29  2  0
 29 30  1  0
 28 31  1  0
 31 32  3  0
  7  2  1  0
 29  8  1  0
 26 12  2  0
 18 16  1  0
 25 19  1  0
  1 33  1  0
  1 34  1  0
  1 35  1  0
  3 36  1  0
  3 37  1  0
  4 38  1  0
  4 39  1  0
  6 40  1  0
  6 41  1  0
  7 42  1  0
  7 43  1  0
  9 44  1  0
 11 45  1  0
 15 46  1  0
 16 47  1  0
 17 48  1  0
 17 49  1  0
 18 50  1  0
 18 51  1  0
 21 52  1  0
 27 53  1  0
M  END
$$$$
[H]c1c([H])c(N2C([H])([H])C([H])([H])N(C([H])([H])[H])C([H])([H])C2([H])[H])c([H])c([H])c1N([H])c1nc([H])c2c3c([H])c([H])c([H])c([H])c3n(C([H])([H])[H])c2n1
     RDKit          3D

 52 56  0  0  0  0  0  0  0  0999 V2000
   -8.3705    0.0164   -0.1303 C   0  0  0  0  0  0  0  0  0  0  0  0
   -7.1893   -0.8235   -0.1868 N   0  0  0  0  0  0  0  0  0  0  0  0
   -6.5125   -0.7248    1.0799 C   0  0  0  0  0  0  0  0  0  0  0  0
   -5.5103    0.4345    0.9561 C   0  0  0  0  0  0  0  0  0  0  0  0
   -4.4636   -0.0346    0.0824 N   0  0  0  0  0  0  0  0  0  0  0  0
   -4.8878   -0.8815   -1.0361 C   0  0  0  0  0  0  0  0  0  0  0  0
   -6.3402   -0.5347   -1.3071 C   0  0  0  0  0  0  0  0  0  0  0  0
   -3.0878    0.2788    0.2466 C   0  0  0  0  0  0  0  0  0  0  0  0
   -2.6398    1.1343    1.2228 C   0  0  0  0  0  0  0  0  0  0  0  0
   -1.3125    1.4344    1.3849 C   0  0  0  0  0  0  0  0  0  0  0  0
   -0.3047    0.8860    0.5591 C   0  0  0  0  0  0  0  0  0  0  0  0
    1.0310    1.2634    0.7801 N   0  0  0  0  0  0  0  0  0  0  0  0
    2.1759    0.5706    0.3375 C   0  0  0  0  0  0  0  0  0  0  0  0
    2.1934   -0.5572   -0.3487 N   0  0  0  0  0  0  0  0  0  0  0  0
    3.3410   -1.1418   -0.7265 C   0  0  0  0  0  0  0  0  0  0  0  0
    4.5647   -0.5947   -0.4172 C   0  0  0  0  0  0  0  0  0  0  0  0
    4.5722    0.5884    0.3023 C   0  0  0  0  0  0  0  0  0  0  0  0
    3.3967    1.1070    0.6403 N   0  0  0  0  0  0  0  0  0  0  0  0
    5.8651    0.9431    0.4930 N   0  0  0  0  0  0  0  0  0  0  0  0
    6.2728    2.1302    1.2061 C   0  0  0  0  0  0  0  0  0  0  0  0
    6.6896    0.0490   -0.0667 C   0  0  0  0  0  0  0  0  0  0  0  0
    8.0583   -0.0505   -0.1541 C   0  0  0  0  0  0  0  0  0  0  0  0
    8.6041   -1.1237   -0.8180 C   0  0  0  0  0  0  0  0  0  0  0  0
    7.8352   -2.1088   -1.4022 C   0  0  0  0  0  0  0  0  0  0  0  0
    6.4739   -1.9913   -1.3039 C   0  0  0  0  0  0  0  0  0  0  0  0
    5.8726   -0.9313   -0.6472 C   0  0  0  0  0  0  0  0  0  0  0  0
   -0.7585    0.0338   -0.4137 C   0  0  0  0  0  0  0  0  0  0  0  0
   -2.1223   -0.2646   -0.5673 C   0  0  0  0  0  0  0  0  0  0  0  0
   -8.1484    0.9485   -0.6674 H   0  0  0  0  0  0  0  0  0  0  0  0
   -8.7281    0.1812    0.9147 H   0  0  0  0  0  0  0  0  0  0  0  0
   -9.2348   -0.4843   -0.6446 H   0  0  0  0  0  0  0  0  0  0  0  0
   -7.2237   -0.4776    1.8922 H   0  0  0  0  0  0  0  0  0  0  0  0
   -5.9705   -1.6709    1.3518 H   0  0  0  0  0  0  0  0  0  0  0  0
   -6.0652    1.2549    0.4297 H   0  0  0  0  0  0  0  0  0  0  0  0
   -5.2008    0.7265    1.9549 H   0  0  0  0  0  0  0  0  0  0  0  0
   -4.3263   -0.5268   -1.9283 H   0  0  0  0  0  0  0  0  0  0  0  0
   -4.7373   -1.9406   -0.8346 H   0  0  0  0  0  0  0  0  0  0  0  0
   -6.6394   -1.1348   -2.2084 H   0  0  0  0  0  0  0  0  0  0  0  0
   -6.3788    0.5350   -1.6202 H   0  0  0  0  0  0  0  0  0  0  0  0
   -3.3910    1.5839    1.8854 H   0  0  0  0  0  0  0  0  0  0  0  0
   -0.9697    2.1136    2.1638 H   0  0  0  0  0  0  0  0  0  0  0  0
    1.1997    2.1616    1.3336 H   0  0  0  0  0  0  0  0  0  0  0  0
    3.3246   -2.0826   -1.2983 H   0  0  0  0  0  0  0  0  0  0  0  0
    5.5406    2.9547    1.0091 H   0  0  0  0  0  0  0  0  0  0  0  0
    6.1578    1.9058    2.2989 H   0  0  0  0  0  0  0  0  0  0  0  0
    7.2979    2.4592    0.9581 H   0  0  0  0  0  0  0  0  0  0  0  0
    8.7231    0.6767    0.2749 H   0  0  0  0  0  0  0  0  0  0  0  0
    9.6847   -1.2274   -0.9021 H   0  0  0  0  0  0  0  0  0  0  0  0
    8.2937   -2.9387   -1.9160 H   0  0  0  0  0  0  0  0  0  0  0  0
    5.8299   -2.7569   -1.7571 H   0  0  0  0  0  0  0  0  0  0  0  0
   -0.0628   -0.4203   -1.1008 H   0  0  0  0  0  0  0  0  0  0  0  0
   -2.4218   -0.9476   -1.3545 H   0  0  0  0  0  0  0  0  0  0  0  0
  1  2  1  0
  2  3  1  0
  3  4  1  0
  4  5  1  0
  5  6  1  0
  6  7  1  0
  5  8  1  0
  8  9  2  0
  9 10  1  0
 10 11  2  0
 11 12  1  0
 12 13  1  0
 13 14  2  0
 14 15  1  0
 15 16  2  0
 16 17  1  0
 17 18  2  0
 17 19  1  0
 19 20  1  0
 19 21  1  0
 21 22  2  0
 22 23  1  0
 23 24  2  0
 24 25  1  0
 25 26  2  0
 11 27  1  0
 27 28  2  0
  7  2  1  0
 28  8  1  0
 18 13  1  0
 26 21  1  0
 26 16  1  0
  1 29  1  0
  1 30  1  0
  1 31  1  0
  3 32  1  0
  3 33  1  0
  4 34  1  0
  4 35  1  0
  6 36  1  0
  6 37  1  0
  7 38  1  0
  7 39  1  0
  9 40  1  0
 10 41  1  0
 12 42  1  0
 15 43  1  0
 20 44  1  0
 20 45  1  0
 20 46  1  0
 22 47  1  0
 23 48  1  0
 24 49  1  0
 25 50  1  0
 27 51  1  0
 28 52  1  0
M  END
$$$$
[H]c1c([H])c([H])c(C([H])([H])[C@@]2([H])C(=O)N([H])[C@@]([H])(C([H])([H])c3c([H])c([H])c([H])c([H])c3[H])C(=O)N([H])[C@@]([H])(C([H])([H])C([H])([H])C([H])([H])N=C(N([H])[H])N([H])[H])C(=O)N([H])[C@@]([H])(C([H])([H])c3c([H])c([H])c([H])c([H])c3[H])C(=O)N([H])[C@]([H])(C([H])([H])C([H])(C([H])([H])[H])C([H])([H])[H])C(=O)N3C([H])([H])C([H])([H])C([H])([H])[C@]3([H])C(=O)N([H])[C@@]([H])(C([H])([H])c3c([H])c([H])c([H])c([H])c3[H])C(=O)N2[H])c([H])c1[H]
     RDKit          3D

136141  0  0  0  0  0  0  0  0999 V2000
   -2.2475    6.4032    1.3055 C   0  0  0  0  0  0  0  0  0  0  0  0
   -2.2921    6.6819   -0.1844 C   0  0  0  0  0  0  0  0  0  0  0  0
   -1.3078    7.7376   -0.5352 C   0  0  0  0  0  0  0  0  0  0  0  0
   -2.3604    5.4786   -1.0184 C   0  0  0  0  0  0  0  0  0  0  0  0
   -1.2736    4.4514   -0.9098 C   0  0  1  0  0  0  0  0  0  0  0  0
   -1.5388    3.3023   -1.7811 N   0  0  0  0  0  0  0  0  0  0  0  0
   -2.5772    2.3933   -1.7577 C   0  0  0  0  0  0  0  0  0  0  0  0
   -3.2909    2.3081   -2.8456 O   0  0  0  0  0  0  0  0  0  0  0  0
   -3.0338    1.4738   -0.6931 C   0  0  2  0  0  0  0  0  0  0  0  0
   -4.3204    1.8671   -0.0258 C   0  0  0  0  0  0  0  0  0  0  0  0
   -5.4941    1.9461   -0.9039 C   0  0  0  0  0  0  0  0  0  0  0  0
   -5.9266    3.1040   -1.4833 C   0  0  0  0  0  0  0  0  0  0  0  0
   -7.0484    3.1481   -2.3222 C   0  0  0  0  0  0  0  0  0  0  0  0
   -7.7380    1.9898   -2.5708 C   0  0  0  0  0  0  0  0  0  0  0  0
   -7.3273    0.8193   -2.0041 C   0  0  0  0  0  0  0  0  0  0  0  0
   -6.2147    0.8025   -1.1788 C   0  0  0  0  0  0  0  0  0  0  0  0
   -2.0184    1.1044    0.2648 N   0  0  0  0  0  0  0  0  0  0  0  0
   -1.9671   -0.0607    1.0560 C   0  0  0  0  0  0  0  0  0  0  0  0
   -1.9237    0.0992    2.3334 O   0  0  0  0  0  0  0  0  0  0  0  0
   -1.9542   -1.4620    0.6083 C   0  0  2  0  0  0  0  0  0  0  0  0
   -3.3026   -2.0702    0.3635 C   0  0  0  0  0  0  0  0  0  0  0  0
   -4.1928   -2.0811    1.5921 C   0  0  0  0  0  0  0  0  0  0  0  0
   -5.4973   -2.7280    1.1663 C   0  0  0  0  0  0  0  0  0  0  0  0
   -6.4575   -2.8149    2.2438 N   0  0  0  0  0  0  0  0  0  0  0  0
   -7.3916   -3.7059    2.1808 C   0  0  0  0  0  0  0  0  0  0  0  0
   -7.5149   -4.6017    1.0999 N   0  0  0  0  0  0  0  0  0  0  0  0
   -8.3211   -3.7723    3.2441 N   0  0  0  0  0  0  0  0  0  0  0  0
   -1.3368   -2.3207    1.6332 N   0  0  0  0  0  0  0  0  0  0  0  0
   -0.4226   -3.3506    1.3902 C   0  0  0  0  0  0  0  0  0  0  0  0
   -0.4269   -4.3263    2.1933 O   0  0  0  0  0  0  0  0  0  0  0  0
    0.5589   -3.4163    0.2818 C   0  0  2  0  0  0  0  0  0  0  0  0
    0.0738   -4.2890   -0.8231 C   0  0  0  0  0  0  0  0  0  0  0  0
   -0.1945   -5.6880   -0.4719 C   0  0  0  0  0  0  0  0  0  0  0  0
   -1.4428   -6.1039   -0.0766 C   0  0  0  0  0  0  0  0  0  0  0  0
   -1.6750   -7.4436    0.2538 C   0  0  0  0  0  0  0  0  0  0  0  0
   -0.6598   -8.3568    0.1870 C   0  0  0  0  0  0  0  0  0  0  0  0
    0.6042   -7.9501   -0.2100 C   0  0  0  0  0  0  0  0  0  0  0  0
    0.8136   -6.6202   -0.5327 C   0  0  0  0  0  0  0  0  0  0  0  0
    1.8508   -3.7764    0.8178 N   0  0  0  0  0  0  0  0  0  0  0  0
    3.0681   -3.0563    0.5695 C   0  0  0  0  0  0  0  0  0  0  0  0
    3.8637   -2.9940    1.5763 O   0  0  0  0  0  0  0  0  0  0  0  0
    3.3927   -2.4291   -0.7319 C   0  0  2  0  0  0  0  0  0  0  0  0
    4.8330   -2.3735   -1.0961 C   0  0  0  0  0  0  0  0  0  0  0  0
    5.5187   -3.6854   -1.2184 C   0  0  0  0  0  0  0  0  0  0  0  0
    6.2722   -4.2702   -0.2243 C   0  0  0  0  0  0  0  0  0  0  0  0
    6.8816   -5.5024   -0.4017 C   0  0  0  0  0  0  0  0  0  0  0  0
    6.7638   -6.2032   -1.5821 C   0  0  0  0  0  0  0  0  0  0  0  0
    6.0164   -5.6374   -2.5865 C   0  0  0  0  0  0  0  0  0  0  0  0
    5.4138   -4.4180   -2.4092 C   0  0  0  0  0  0  0  0  0  0  0  0
    2.6779   -1.1895   -0.9467 N   0  0  0  0  0  0  0  0  0  0  0  0
    2.8206    0.0336   -0.2642 C   0  0  0  0  0  0  0  0  0  0  0  0
    1.7843    0.5009    0.3294 O   0  0  0  0  0  0  0  0  0  0  0  0
    4.0247    0.8821   -0.1266 C   0  0  2  0  0  0  0  0  0  0  0  0
    4.5877    0.8383    1.2717 C   0  0  0  0  0  0  0  0  0  0  0  0
    5.8053    1.6624    1.3756 C   0  0  0  0  0  0  0  0  0  0  0  0
    5.8420    2.9723    1.7762 C   0  0  0  0  0  0  0  0  0  0  0  0
    7.0413    3.6786    1.8489 C   0  0  0  0  0  0  0  0  0  0  0  0
    8.2332    3.0946    1.5240 C   0  0  0  0  0  0  0  0  0  0  0  0
    8.2295    1.7952    1.1225 C   0  0  0  0  0  0  0  0  0  0  0  0
    7.0539    1.1055    1.0516 C   0  0  0  0  0  0  0  0  0  0  0  0
    3.8583    2.2481   -0.5376 N   0  0  0  0  0  0  0  0  0  0  0  0
    2.7847    3.0527   -0.8595 C   0  0  0  0  0  0  0  0  0  0  0  0
    2.7137    3.3759   -2.1241 O   0  0  0  0  0  0  0  0  0  0  0  0
    1.6767    3.6492   -0.1109 C   0  0  1  0  0  0  0  0  0  0  0  0
    2.0010    4.1598    1.2575 C   0  0  0  0  0  0  0  0  0  0  0  0
    2.7266    5.4763    1.0265 C   0  0  0  0  0  0  0  0  0  0  0  0
    2.3517    5.8188   -0.4082 C   0  0  0  0  0  0  0  0  0  0  0  0
    1.2450    4.9319   -0.7229 N   0  0  0  0  0  0  0  0  0  0  0  0
    0.0132    5.0651   -1.4159 C   0  0  0  0  0  0  0  0  0  0  0  0
    0.0474    5.7278   -2.4920 O   0  0  0  0  0  0  0  0  0  0  0  0
   -2.2503    7.3897    1.8116 H   0  0  0  0  0  0  0  0  0  0  0  0
   -3.1993    5.8946    1.6401 H   0  0  0  0  0  0  0  0  0  0  0  0
   -1.3516    5.8664    1.6293 H   0  0  0  0  0  0  0  0  0  0  0  0
   -3.3371    7.1839   -0.2974 H   0  0  0  0  0  0  0  0  0  0  0  0
   -1.5981    8.6809    0.0337 H   0  0  0  0  0  0  0  0  0  0  0  0
   -0.2710    7.4837   -0.2748 H   0  0  0  0  0  0  0  0  0  0  0  0
   -1.3276    8.0165   -1.6170 H   0  0  0  0  0  0  0  0  0  0  0  0
   -2.4554    5.8062   -2.1081 H   0  0  0  0  0  0  0  0  0  0  0  0
   -3.3241    4.9075   -0.8551 H   0  0  0  0  0  0  0  0  0  0  0  0
   -1.1366    4.0727    0.1036 H   0  0  0  0  0  0  0  0  0  0  0  0
   -0.8108    3.1459   -2.5595 H   0  0  0  0  0  0  0  0  0  0  0  0
   -3.2941    0.4625   -1.1820 H   0  0  0  0  0  0  0  0  0  0  0  0
   -4.5107    1.1341    0.7972 H   0  0  0  0  0  0  0  0  0  0  0  0
   -4.2515    2.8480    0.4918 H   0  0  0  0  0  0  0  0  0  0  0  0
   -5.4343    4.0432   -1.3202 H   0  0  0  0  0  0  0  0  0  0  0  0
   -7.3583    4.0900   -2.7616 H   0  0  0  0  0  0  0  0  0  0  0  0
   -8.6207    2.0010   -3.2252 H   0  0  0  0  0  0  0  0  0  0  0  0
   -7.8932   -0.0910   -2.2149 H   0  0  0  0  0  0  0  0  0  0  0  0
   -5.8927   -0.1147   -0.7367 H   0  0  0  0  0  0  0  0  0  0  0  0
   -1.2203    1.7986    0.3842 H   0  0  0  0  0  0  0  0  0  0  0  0
   -1.3525   -1.6460   -0.3091 H   0  0  0  0  0  0  0  0  0  0  0  0
   -3.0884   -3.1697    0.1733 H   0  0  0  0  0  0  0  0  0  0  0  0
   -3.8323   -1.7404   -0.5232 H   0  0  0  0  0  0  0  0  0  0  0  0
   -4.4003   -1.0457    1.8676 H   0  0  0  0  0  0  0  0  0  0  0  0
   -3.7491   -2.6186    2.4305 H   0  0  0  0  0  0  0  0  0  0  0  0
   -5.8989   -2.2985    0.2456 H   0  0  0  0  0  0  0  0  0  0  0  0
   -5.2319   -3.7994    0.9234 H   0  0  0  0  0  0  0  0  0  0  0  0
   -8.1559   -4.3461    0.3040 H   0  0  0  0  0  0  0  0  0  0  0  0
   -7.0125   -5.5080    1.0316 H   0  0  0  0  0  0  0  0  0  0  0  0
   -8.5303   -4.6502    3.7573 H   0  0  0  0  0  0  0  0  0  0  0  0
   -8.8200   -2.9090    3.5303 H   0  0  0  0  0  0  0  0  0  0  0  0
   -1.6507   -2.0920    2.6221 H   0  0  0  0  0  0  0  0  0  0  0  0
    0.5675   -2.3707   -0.1358 H   0  0  0  0  0  0  0  0  0  0  0  0
    0.7884   -4.2192   -1.7020 H   0  0  0  0  0  0  0  0  0  0  0  0
   -0.8518   -3.7865   -1.2408 H   0  0  0  0  0  0  0  0  0  0  0  0
   -2.2902   -5.4378    0.0001 H   0  0  0  0  0  0  0  0  0  0  0  0
   -2.6658   -7.7703    0.5677 H   0  0  0  0  0  0  0  0  0  0  0  0
   -0.8687   -9.4035    0.4504 H   0  0  0  0  0  0  0  0  0  0  0  0
    1.3854   -8.7000   -0.2527 H   0  0  0  0  0  0  0  0  0  0  0  0
    1.8360   -6.3622   -0.8411 H   0  0  0  0  0  0  0  0  0  0  0  0
    1.9263   -4.6190    1.4454 H   0  0  0  0  0  0  0  0  0  0  0  0
    2.9760   -3.1736   -1.4938 H   0  0  0  0  0  0  0  0  0  0  0  0
    5.0175   -1.8403   -2.0537 H   0  0  0  0  0  0  0  0  0  0  0  0
    5.4513   -1.8018   -0.3595 H   0  0  0  0  0  0  0  0  0  0  0  0
    6.4167   -3.7535    0.7337 H   0  0  0  0  0  0  0  0  0  0  0  0
    7.4790   -5.9562    0.3973 H   0  0  0  0  0  0  0  0  0  0  0  0
    7.2534   -7.1829   -1.7117 H   0  0  0  0  0  0  0  0  0  0  0  0
    5.9109   -6.1628   -3.5151 H   0  0  0  0  0  0  0  0  0  0  0  0
    4.8286   -3.9942   -3.2202 H   0  0  0  0  0  0  0  0  0  0  0  0
    1.9334   -1.1999   -1.7188 H   0  0  0  0  0  0  0  0  0  0  0  0
    4.8617    0.4189   -0.7433 H   0  0  0  0  0  0  0  0  0  0  0  0
    3.8379    1.2245    2.0126 H   0  0  0  0  0  0  0  0  0  0  0  0
    4.8014   -0.2102    1.5924 H   0  0  0  0  0  0  0  0  0  0  0  0
    4.9148    3.4531    2.0431 H   0  0  0  0  0  0  0  0  0  0  0  0
    6.9827    4.7001    2.1698 H   0  0  0  0  0  0  0  0  0  0  0  0
    9.1761    3.6151    1.5707 H   0  0  0  0  0  0  0  0  0  0  0  0
    9.1756    1.3175    0.8613 H   0  0  0  0  0  0  0  0  0  0  0  0
    7.0425    0.0607    0.7316 H   0  0  0  0  0  0  0  0  0  0  0  0
    4.8185    2.7408   -0.6235 H   0  0  0  0  0  0  0  0  0  0  0  0
    0.7421    3.0652   -0.0681 H   0  0  0  0  0  0  0  0  0  0  0  0
    1.0362    4.4173    1.7438 H   0  0  0  0  0  0  0  0  0  0  0  0
    2.5217    3.4676    1.9097 H   0  0  0  0  0  0  0  0  0  0  0  0
    2.3683    6.2877    1.6940 H   0  0  0  0  0  0  0  0  0  0  0  0
    3.8072    5.3876    1.1550 H   0  0  0  0  0  0  0  0  0  0  0  0
    3.2283    5.6319   -1.0663 H   0  0  0  0  0  0  0  0  0  0  0  0
    2.0989    6.8783   -0.4823 H   0  0  0  0  0  0  0  0  0  0  0  0
  1  2  1  0
  2  3  1  0
  2  4  1  0
  4  5  1  0
  5  6  1  0
  6  7  1  0
  7  8  2  0
  7  9  1  0
  9 10  1  0
 10 11  1  0
 11 12  2  0
 12 13  1  0
 13 14  2  0
 14 15  1  0
 15 16  2  0
  9 17  1  0
 17 18  1  0
 18 19  2  0
 18 20  1  0
 20 21  1  0
 21 22  1  0
 22 23  1  0
 23 24  1  0
 24 25  2  3
 25 26  1  0
 25 27  1  0
 20 28  1  0
 28 29  1  0
 29 30  2  0
 29 31  1  0
 31 32  1  0
 32 33  1  0
 33 34  2  0
 34 35  1  0
 35 36  2  0
 36 37  1  0
 37 38  2  0
 31 39  1  0
 39 40  1  0
 40 41  2  0
 40 42  1  0
 42 43  1  0
 43 44  1  0
 44 45  2  0
 45 46  1  0
 46 47  2  0
 47 48  1  0
 48 49  2  0
 42 50  1  0
 50 51  1  0
 51 52  2  0
 51 53  1  0
 53 54  1  0
 54 55  1  0
 55 56  2  0
 56 57  1  0
 57 58  2  0
 58 59  1  0
 59 60  2  0
 53 61  1  0
 61 62  1  0
 62 63  2  0
 62 64  1  0
 64 65  1  0
 65 66  1  0
 66 67  1  0
 67 68  1  0
 68 69  1  0
 69 70  2  0
 69  5  1  0
 16 11  1  0
 38 33  1  0
 49 44  1  0
 60 55  1  0
 68 64  1  0
  1 71  1  0
  1 72  1  0
  1 73  1  0
  2 74  1  0
  3 75  1  0
  3 76  1  0
  3 77  1  0
  4 78  1  0
  4 79  1  0
  5 80  1  1
  6 81  1  0
  9 82  1  6
 10 83  1  0
 10 84  1  0
 12 85  1  0
 13 86  1  0
 14 87  1  0
 15 88  1  0
 16 89  1  0
 17 90  1  0
 20 91  1  6
 21 92  1  0
 21 93  1  0
 22 94  1  0
 22 95  1  0
 23 96  1  0
 23 97  1  0
 26 98  1  0
 26 99  1  0
 27100  1  0
 27101  1  0
 28102  1  0
 31103  1  6
 32104  1  0
 32105  1  0
 34106  1  0
 35107  1  0
 36108  1  0
 37109  1  0
 38110  1  0
 39111  1  0
 42112  1  6
 43113  1  0
 43114  1  0
 45115  1  0
 46116  1  0
 47117  1  0
 48118  1  0
 49119  1  0
 50120  1  0
 53121  1  6
 54122  1  0
 54123  1  0
 56124  1  0
 57125  1  0
 58126  1  0
 59127  1  0
 60128  1  0
 61129  1  0
 64130  1  1
 65131  1  0
 65132  1  0
 66133  1  0
 66134  1  0
 67135  1  0
 67136  1  0
M  END
$$$$
[H]N=C(N([H])[H])N([H])C([H])([H])C([H])([H])C([H])([H])[C@@]([H])(C(=O)N([H])[C@]([H])(C(=O)N([H])[C@]([H])(C(=O)O[H])C([H])(C([H])([H])[H])C([H])([H])[H])C([H])([H])c1c([H])n([H])c2c([H])c([H])c([H])c([H])c12)N([H])C(=O)[C@@]([H])(N([H])C(=O)[C@@]1([H])N(C(=O)[C@@]([H])(N([H])[H])C([H])([H])[H])C([H])([H])C([H])([H])C1([H])[H])C([H])([H])C([H])(C([H])([H])[H])C([H])([H])[H]
     RDKit          3D

109111  0  0  0  0  0  0  0  0999 V2000
    3.4862   -0.1561   -4.1069 C   0  0  0  0  0  0  0  0  0  0  0  0
    3.4714   -1.3059   -3.1337 C   0  0  0  0  0  0  0  0  0  0  0  0
    3.5483   -2.6288   -3.8321 C   0  0  0  0  0  0  0  0  0  0  0  0
    2.3522   -1.2168   -2.1077 C   0  0  0  0  0  0  0  0  0  0  0  0
    2.5778    0.0420   -1.3534 C   0  0  2  0  0  0  0  0  0  0  0  0
    3.8810    0.0791   -0.6654 N   0  0  0  0  0  0  0  0  0  0  0  0
    4.5505    1.2776   -0.4004 C   0  0  0  0  0  0  0  0  0  0  0  0
    3.9803    2.3820   -0.7742 O   0  0  0  0  0  0  0  0  0  0  0  0
    5.8378    1.4302    0.2558 C   0  0  2  0  0  0  0  0  0  0  0  0
    6.8574    2.1445   -0.6426 C   0  0  0  0  0  0  0  0  0  0  0  0
    7.4824    1.0331   -1.4209 C   0  0  0  0  0  0  0  0  0  0  0  0
    7.1762   -0.2673   -0.6732 C   0  0  0  0  0  0  0  0  0  0  0  0
    6.5365    0.1699    0.5592 N   0  0  0  0  0  0  0  0  0  0  0  0
    6.5914   -0.4421    1.8311 C   0  0  0  0  0  0  0  0  0  0  0  0
    5.9970    0.0618    2.8272 O   0  0  0  0  0  0  0  0  0  0  0  0
    7.3541   -1.7154    2.0622 C   0  0  2  0  0  0  0  0  0  0  0  0
    6.7079   -2.8769    1.3642 C   0  0  0  0  0  0  0  0  0  0  0  0
    7.4056   -1.9401    3.5097 N   0  0  0  0  0  0  0  0  0  0  0  0
    1.5038    0.2715   -0.2833 C   0  0  0  0  0  0  0  0  0  0  0  0
    1.8892   -0.4379    0.7905 O   0  0  0  0  0  0  0  0  0  0  0  0
    0.4575    0.9942   -0.3592 N   0  0  0  0  0  0  0  0  0  0  0  0
   -0.7446    1.8195   -0.4280 C   0  0  1  0  0  0  0  0  0  0  0  0
   -1.4217    1.6094   -1.7363 C   0  0  0  0  0  0  0  0  0  0  0  0
   -0.6179    1.8795   -2.9632 C   0  0  0  0  0  0  0  0  0  0  0  0
   -0.1330    3.2946   -3.1274 C   0  0  0  0  0  0  0  0  0  0  0  0
    0.6424    3.3721   -4.3727 N   0  0  0  0  0  0  0  0  0  0  0  0
    1.1701    4.5956   -4.7987 C   0  0  0  0  0  0  0  0  0  0  0  0
    2.5565    4.7563   -5.0510 N   0  0  0  0  0  0  0  0  0  0  0  0
    0.3293    5.5742   -4.9936 N   0  0  0  0  0  0  0  0  0  0  0  0
   -1.7074    1.3171    0.6689 C   0  0  0  0  0  0  0  0  0  0  0  0
   -1.1939    1.0928    1.7799 O   0  0  0  0  0  0  0  0  0  0  0  0
   -3.0696    1.1292    0.4384 N   0  0  0  0  0  0  0  0  0  0  0  0
   -3.9358    0.6884    1.5140 C   0  0  1  0  0  0  0  0  0  0  0  0
   -5.2318    1.2794    1.6563 C   0  0  0  0  0  0  0  0  0  0  0  0
   -5.9800    0.8526    2.9039 C   0  0  0  0  0  0  0  0  0  0  0  0
   -7.0880    0.0660    3.0502 C   0  0  0  0  0  0  0  0  0  0  0  0
   -7.4069    0.0138    4.3476 N   0  0  0  0  0  0  0  0  0  0  0  0
   -6.5723    0.7286    5.0670 C   0  0  0  0  0  0  0  0  0  0  0  0
   -6.4074    1.0483    6.4238 C   0  0  0  0  0  0  0  0  0  0  0  0
   -5.4064    1.8488    6.8741 C   0  0  0  0  0  0  0  0  0  0  0  0
   -4.4848    2.3958    6.0074 C   0  0  0  0  0  0  0  0  0  0  0  0
   -4.6270    2.0958    4.6690 C   0  0  0  0  0  0  0  0  0  0  0  0
   -5.6260    1.2935    4.1814 C   0  0  0  0  0  0  0  0  0  0  0  0
   -3.8506   -0.8359    1.3536 C   0  0  0  0  0  0  0  0  0  0  0  0
   -2.6518   -1.2656    1.4535 O   0  0  0  0  0  0  0  0  0  0  0  0
   -4.9027   -1.6573    1.1217 N   0  0  0  0  0  0  0  0  0  0  0  0
   -5.0714   -3.0516    1.0175 C   0  0  1  0  0  0  0  0  0  0  0  0
   -6.1193   -3.5514    0.0906 C   0  0  0  0  0  0  0  0  0  0  0  0
   -6.2064   -5.0490    0.1475 C   0  0  0  0  0  0  0  0  0  0  0  0
   -7.4792   -2.9343    0.2464 C   0  0  0  0  0  0  0  0  0  0  0  0
   -3.7918   -3.8141    0.7511 C   0  0  0  0  0  0  0  0  0  0  0  0
   -3.7872   -4.7256   -0.3348 O   0  0  0  0  0  0  0  0  0  0  0  0
   -2.7406   -3.7077    1.3958 O   0  0  0  0  0  0  0  0  0  0  0  0
    3.7934   -0.6041   -5.1041 H   0  0  0  0  0  0  0  0  0  0  0  0
    2.4937    0.3404   -4.1794 H   0  0  0  0  0  0  0  0  0  0  0  0
    4.3251    0.5774   -3.9082 H   0  0  0  0  0  0  0  0  0  0  0  0
    4.4193   -1.1413   -2.4999 H   0  0  0  0  0  0  0  0  0  0  0  0
    3.0660   -2.5797   -4.8382 H   0  0  0  0  0  0  0  0  0  0  0  0
    4.6422   -2.8035   -4.0709 H   0  0  0  0  0  0  0  0  0  0  0  0
    3.1828   -3.4860   -3.2312 H   0  0  0  0  0  0  0  0  0  0  0  0
    1.3354   -1.1290   -2.6037 H   0  0  0  0  0  0  0  0  0  0  0  0
    2.4197   -2.1264   -1.4673 H   0  0  0  0  0  0  0  0  0  0  0  0
    2.5079    0.9038   -1.9968 H   0  0  0  0  0  0  0  0  0  0  0  0
    4.3479   -0.8237   -0.3485 H   0  0  0  0  0  0  0  0  0  0  0  0
    5.7896    2.0509    1.1940 H   0  0  0  0  0  0  0  0  0  0  0  0
    7.6486    2.6175    0.0005 H   0  0  0  0  0  0  0  0  0  0  0  0
    6.4061    2.9481   -1.2125 H   0  0  0  0  0  0  0  0  0  0  0  0
    7.1017    0.9014   -2.4352 H   0  0  0  0  0  0  0  0  0  0  0  0
    8.6130    1.1336   -1.3685 H   0  0  0  0  0  0  0  0  0  0  0  0
    6.5028   -0.9412   -1.2353 H   0  0  0  0  0  0  0  0  0  0  0  0
    8.0723   -0.8158   -0.4114 H   0  0  0  0  0  0  0  0  0  0  0  0
    8.3564   -1.5678    1.6038 H   0  0  0  0  0  0  0  0  0  0  0  0
    7.4487   -3.4605    0.8290 H   0  0  0  0  0  0  0  0  0  0  0  0
    5.8183   -2.6092    0.7366 H   0  0  0  0  0  0  0  0  0  0  0  0
    6.2842   -3.5402    2.1682 H   0  0  0  0  0  0  0  0  0  0  0  0
    8.2836   -2.3812    3.8036 H   0  0  0  0  0  0  0  0  0  0  0  0
    7.2694   -1.0603    4.0494 H   0  0  0  0  0  0  0  0  0  0  0  0
    0.4141    1.1606    0.9879 H   0  0  0  0  0  0  0  0  0  0  0  0
   -0.6198    2.8485   -0.1272 H   0  0  0  0  0  0  0  0  0  0  0  0
   -1.8399    0.5785   -1.8329 H   0  0  0  0  0  0  0  0  0  0  0  0
   -2.3105    2.3204   -1.7806 H   0  0  0  0  0  0  0  0  0  0  0  0
    0.2663    1.2073   -2.9963 H   0  0  0  0  0  0  0  0  0  0  0  0
   -1.1924    1.5692   -3.8848 H   0  0  0  0  0  0  0  0  0  0  0  0
   -1.0396    3.9549   -3.1640 H   0  0  0  0  0  0  0  0  0  0  0  0
    0.5659    3.5285   -2.3103 H   0  0  0  0  0  0  0  0  0  0  0  0
    0.7972    2.4913   -4.9308 H   0  0  0  0  0  0  0  0  0  0  0  0
    3.0921    5.6386   -4.9471 H   0  0  0  0  0  0  0  0  0  0  0  0
    3.0588    3.8787   -5.3766 H   0  0  0  0  0  0  0  0  0  0  0  0
   -0.6932    5.4550   -4.8402 H   0  0  0  0  0  0  0  0  0  0  0  0
   -3.4991    1.2971   -0.5104 H   0  0  0  0  0  0  0  0  0  0  0  0
   -3.3780    0.8132    2.5073 H   0  0  0  0  0  0  0  0  0  0  0  0
   -5.9279    1.1345    0.7744 H   0  0  0  0  0  0  0  0  0  0  0  0
   -5.1455    2.4013    1.7271 H   0  0  0  0  0  0  0  0  0  0  0  0
   -7.6373   -0.4360    2.2682 H   0  0  0  0  0  0  0  0  0  0  0  0
   -8.2321   -0.5312    4.7736 H   0  0  0  0  0  0  0  0  0  0  0  0
   -7.1388    0.6026    7.0822 H   0  0  0  0  0  0  0  0  0  0  0  0
   -5.3657    2.0308    7.9606 H   0  0  0  0  0  0  0  0  0  0  0  0
   -3.7063    3.0146    6.3494 H   0  0  0  0  0  0  0  0  0  0  0  0
   -3.9239    2.5190    3.9310 H   0  0  0  0  0  0  0  0  0  0  0  0
   -5.8438   -1.1162    0.8768 H   0  0  0  0  0  0  0  0  0  0  0  0
   -5.3225   -3.3841    2.1157 H   0  0  0  0  0  0  0  0  0  0  0  0
   -5.7204   -3.3352   -0.9707 H   0  0  0  0  0  0  0  0  0  0  0  0
   -7.2846   -5.3422    0.3784 H   0  0  0  0  0  0  0  0  0  0  0  0
   -5.9400   -5.5705   -0.7814 H   0  0  0  0  0  0  0  0  0  0  0  0
   -5.6099   -5.4655    1.0019 H   0  0  0  0  0  0  0  0  0  0  0  0
   -7.5570   -1.9523   -0.2795 H   0  0  0  0  0  0  0  0  0  0  0  0
   -8.1690   -3.5998   -0.3652 H   0  0  0  0  0  0  0  0  0  0  0  0
   -7.7583   -2.9065    1.3113 H   0  0  0  0  0  0  0  0  0  0  0  0
   -3.5538   -4.2658   -1.2225 H   0  0  0  0  0  0  0  0  0  0  0  0
  1  2  1  0
  2  3  1  0
  2  4  1  0
  4  5  1  0
  5  6  1  0
  6  7  1  0
  7  8  2  0
  7  9  1  0
  9 10  1  0
 10 11  1  0
 11 12  1  0
 12 13  1  0
 13 14  1  0
 14 15  2  0
 14 16  1  0
 16 17  1  0
 16 18  1  0
  5 19  1  0
 19 20  2  0
 19 21  1  0
 21 22  1  0
 22 23  1  0
 23 24  1  0
 24 25  1  0
 25 26  1  0
 26 27  1  0
 27 28  1  0
 27 29  2  3
 22 30  1  0
 30 31  2  0
 30 32  1  0
 32 33  1  0
 33 34  1  0
 34 35  1  0
 35 36  2  0
 36 37  1  0
 37 38  1  0
 38 39  2  0
 39 40  1  0
 40 41  2  0
 41 42  1  0
 42 43  2  0
 33 44  1  0
 44 45  2  0
 44 46  1  0
 46 47  1  0
 47 48  1  0
 48 49  1  0
 48 50  1  0
 47 51  1  0
 51 52  1  0
 51 53  2  0
 13  9  1  0
 43 35  1  0
 43 38  1  0
  1 54  1  0
  1 55  1  0
  1 56  1  0
  2 57  1  0
  3 58  1  0
  3 59  1  0
  3 60  1  0
  4 61  1  0
  4 62  1  0
  5 63  1  6
  6 64  1  0
  9 65  1  1
 10 66  1  0
 10 67  1  0
 11 68  1  0
 11 69  1  0
 12 70  1  0
 12 71  1  0
 16 72  1  6
 17 73  1  0
 17 74  1  0
 17 75  1  0
 18 76  1  0
 18 77  1  0
 21 78  1  0
 22 79  1  1
 23 80  1  0
 23 81  1  0
 24 82  1  0
 24 83  1  0
 25 84  1  0
 25 85  1  0
 26 86  1  0
 28 87  1  0
 28 88  1  0
 29 89  1  0
 32 90  1  0
 33 91  1  1
 34 92  1  0
 34 93  1  0
 36 94  1  0
 37 95  1  0
 39 96  1  0
 40 97  1  0
 41 98  1  0
 42 99  1  0
 46100  1  0
 47101  1  1
 48102  1  0
 49103  1  0
 49104  1  0
 49105  1  0
 50106  1  0
 50107  1  0
 50108  1  0
 52109  1  0
M  END
$$$$
[H]c1c([H])c([H])c([C@@]([H])(N([H])[H])C([H])([H])n2c(=O)c(-c3c([H])c([H])c(C(=O)N([H])c4c([H])c(C([H])([H])[H])nn4[H])c([H])c3F)c([H])c3c([H])nc(N([H])C([H])([H])[H])nc32)c([H])c1[H]
     RDKit          3D

 63 67  0  0  0  0  0  0  0  0999 V2000
   -6.0446   -4.2448    0.2302 C   0  0  0  0  0  0  0  0  0  0  0  0
   -5.3705   -4.3757   -1.0494 N   0  0  0  0  0  0  0  0  0  0  0  0
   -4.1764   -3.6378   -1.2560 C   0  0  0  0  0  0  0  0  0  0  0  0
   -3.5681   -3.7818   -2.4642 N   0  0  0  0  0  0  0  0  0  0  0  0
   -2.4450   -3.1132   -2.7101 C   0  0  0  0  0  0  0  0  0  0  0  0
   -1.9233   -2.2876   -1.7309 C   0  0  0  0  0  0  0  0  0  0  0  0
   -0.7549   -1.6047   -1.9819 C   0  0  0  0  0  0  0  0  0  0  0  0
   -0.1947   -0.7788   -1.0264 C   0  0  0  0  0  0  0  0  0  0  0  0
    1.0286   -0.0813   -1.3349 C   0  0  0  0  0  0  0  0  0  0  0  0
    1.1632    1.2630   -1.0782 C   0  0  0  0  0  0  0  0  0  0  0  0
    2.3396    1.8780   -1.3976 C   0  0  0  0  0  0  0  0  0  0  0  0
    3.3965    1.1653   -1.9755 C   0  0  0  0  0  0  0  0  0  0  0  0
    3.2760   -0.2049   -2.2434 C   0  0  0  0  0  0  0  0  0  0  0  0
    2.0738   -0.7895   -1.9069 C   0  0  0  0  0  0  0  0  0  0  0  0
    1.9974   -2.1367   -2.1800 F   0  0  0  0  0  0  0  0  0  0  0  0
    4.6372    1.7880   -2.3557 C   0  0  0  0  0  0  0  0  0  0  0  0
    4.6082    2.2520   -3.5826 O   0  0  0  0  0  0  0  0  0  0  0  0
    5.8121    1.9538   -1.6218 N   0  0  0  0  0  0  0  0  0  0  0  0
    6.0575    1.5403   -0.2981 C   0  0  0  0  0  0  0  0  0  0  0  0
    7.3000    1.7701    0.3347 C   0  0  0  0  0  0  0  0  0  0  0  0
    7.2034    1.2542    1.5947 C   0  0  0  0  0  0  0  0  0  0  0  0
    8.2635    1.2518    2.6533 C   0  0  0  0  0  0  0  0  0  0  0  0
    5.9870    0.7401    1.7354 N   0  0  0  0  0  0  0  0  0  0  0  0
    5.3211    0.9162    0.6104 N   0  0  0  0  0  0  0  0  0  0  0  0
   -0.8656   -0.6760    0.1838 C   0  0  0  0  0  0  0  0  0  0  0  0
   -0.3349    0.0732    1.0292 O   0  0  0  0  0  0  0  0  0  0  0  0
   -2.0045   -1.3199    0.4710 N   0  0  0  0  0  0  0  0  0  0  0  0
   -2.6367   -1.1605    1.7237 C   0  0  0  0  0  0  0  0  0  0  0  0
   -3.6790   -0.1181    1.8811 C   0  0  2  0  0  0  0  0  0  0  0  0
   -4.8270   -0.3090    0.9872 N   0  0  0  0  0  0  0  0  0  0  0  0
   -3.2388    1.2835    1.8648 C   0  0  0  0  0  0  0  0  0  0  0  0
   -3.2713    2.0314    0.7098 C   0  0  0  0  0  0  0  0  0  0  0  0
   -2.8522    3.3526    0.7261 C   0  0  0  0  0  0  0  0  0  0  0  0
   -2.3975    3.9486    1.8793 C   0  0  0  0  0  0  0  0  0  0  0  0
   -2.3631    3.2041    3.0389 C   0  0  0  0  0  0  0  0  0  0  0  0
   -2.7815    1.8976    3.0054 C   0  0  0  0  0  0  0  0  0  0  0  0
   -2.5201   -2.1259   -0.5036 C   0  0  0  0  0  0  0  0  0  0  0  0
   -3.6582   -2.8303   -0.3108 N   0  0  0  0  0  0  0  0  0  0  0  0
   -5.3704   -3.9001    1.0142 H   0  0  0  0  0  0  0  0  0  0  0  0
   -6.4845   -5.2181    0.5653 H   0  0  0  0  0  0  0  0  0  0  0  0
   -6.8895   -3.5247    0.0515 H   0  0  0  0  0  0  0  0  0  0  0  0
   -5.7538   -4.9930   -1.7912 H   0  0  0  0  0  0  0  0  0  0  0  0
   -1.9517   -3.2186   -3.6654 H   0  0  0  0  0  0  0  0  0  0  0  0
   -0.3070   -1.7514   -2.9697 H   0  0  0  0  0  0  0  0  0  0  0  0
    0.3147    1.7722   -0.6293 H   0  0  0  0  0  0  0  0  0  0  0  0
    2.4419    2.9238   -1.1968 H   0  0  0  0  0  0  0  0  0  0  0  0
    4.1000   -0.7480   -2.6910 H   0  0  0  0  0  0  0  0  0  0  0  0
    6.6076    2.4605   -2.1458 H   0  0  0  0  0  0  0  0  0  0  0  0
    8.1563    2.2628   -0.1080 H   0  0  0  0  0  0  0  0  0  0  0  0
    9.1996    1.6619    2.2101 H   0  0  0  0  0  0  0  0  0  0  0  0
    8.3930    0.1840    2.9500 H   0  0  0  0  0  0  0  0  0  0  0  0
    7.9145    1.7911    3.5351 H   0  0  0  0  0  0  0  0  0  0  0  0
    4.3457    0.5918    0.4943 H   0  0  0  0  0  0  0  0  0  0  0  0
   -1.8980   -1.0642    2.5777 H   0  0  0  0  0  0  0  0  0  0  0  0
   -3.1521   -2.1464    1.9723 H   0  0  0  0  0  0  0  0  0  0  0  0
   -4.1547   -0.3507    2.9120 H   0  0  0  0  0  0  0  0  0  0  0  0
   -5.1885    0.6391    0.7518 H   0  0  0  0  0  0  0  0  0  0  0  0
   -5.5676   -0.8998    1.3934 H   0  0  0  0  0  0  0  0  0  0  0  0
   -3.6238    1.5951   -0.2162 H   0  0  0  0  0  0  0  0  0  0  0  0
   -2.8758    3.9398   -0.1748 H   0  0  0  0  0  0  0  0  0  0  0  0
   -2.0665    5.0014    1.8771 H   0  0  0  0  0  0  0  0  0  0  0  0
   -2.0101    3.6552    3.9530 H   0  0  0  0  0  0  0  0  0  0  0  0
   -2.7367    1.3490    3.9402 H   0  0  0  0  0  0  0  0  0  0  0  0
  1  2  1  0
  2  3  1  0
  3  4  2  0
  4  5  1  0
  5  6  2  0
  6  7  1  0
  7  8  2  0
  8  9  1  0
  9 10  2  0
 10 11  1  0
 11 12  2  0
 12 13  1  0
 13 14  2  0
 14 15  1  0
 12 16  1  0
 16 17  2  0
 16 18  1  0
 18 19  1  0
 19 20  2  0
 20 21  1  0
 21 22  1  0
 21 23  2  0
 23 24  1  0
  8 25  1  0
 25 26  2  0
 25 27  1  0
 27 28  1  0
 28 29  1  0
 29 30  1  0
 29 31  1  0
 31 32  2  0
 32 33  1  0
 33 34  2  0
 34 35  1  0
 35 36  2  0
 27 37  1  0
 37 38  2  0
 38  3  1  0
 37  6  1  0
 14  9  1  0
 24 19  1  0
 36 31  1  0
  1 39  1  0
  1 40  1  0
  1 41  1  0
  2 42  1  0
  5 43  1  0
  7 44  1  0
 10 45  1  0
 11 46  1  0
 13 47  1  0
 18 48  1  0
 20 49  1  0
 22 50  1  0
 22 51  1  0
 22 52  1  0
 24 53  1  0
 28 54  1  0
 28 55  1  0
 29 56  1  1
 30 57  1  0
 30 58  1  0
 32 59  1  0
 33 60  1  0
 34 61  1  0
 35 62  1  0
 36 63  1  0
M  END
$$$$
[H]c1c([H])c(N([H])C(=O)N2C([H])([H])C([H])([H])OC([H])([H])C2([H])[H])c([H])c([H])c1Oc1c([H])c(F)c(S(=O)(=O)N([H])[H])c([H])c1F
     RDKit          3D

 45 47  0  0  0  0  0  0  0  0999 V2000
   -8.7552    1.0984    1.1885 N   0  0  0  0  0  0  0  0  0  0  0  0
   -7.2585    1.4745    1.9889 S   0  0  0  0  0  0  0  0  0  0  0  0
   -7.2987    0.9171    3.3923 O   0  0  0  0  0  0  0  0  0  0  0  0
   -7.1213    2.9590    2.0698 O   0  0  0  0  0  0  0  0  0  0  0  0
   -5.9482    0.7444    1.1054 C   0  0  0  0  0  0  0  0  0  0  0  0
   -5.1125   -0.1759    1.6770 C   0  0  0  0  0  0  0  0  0  0  0  0
   -4.0723   -0.7298    0.9116 C   0  0  0  0  0  0  0  0  0  0  0  0
   -3.2587   -1.6364    1.5022 F   0  0  0  0  0  0  0  0  0  0  0  0
   -3.8725   -0.3745   -0.3883 C   0  0  0  0  0  0  0  0  0  0  0  0
   -2.8922   -0.8754   -1.1621 O   0  0  0  0  0  0  0  0  0  0  0  0
   -1.5183   -0.8241   -0.9758 C   0  0  0  0  0  0  0  0  0  0  0  0
   -0.8147   -1.9008   -0.4853 C   0  0  0  0  0  0  0  0  0  0  0  0
    0.5468   -1.8399   -0.3008 C   0  0  0  0  0  0  0  0  0  0  0  0
    1.3148   -0.7010   -0.5914 C   0  0  0  0  0  0  0  0  0  0  0  0
    2.7014   -0.7506   -0.3801 N   0  0  0  0  0  0  0  0  0  0  0  0
    3.6021    0.3072   -0.3267 C   0  0  0  0  0  0  0  0  0  0  0  0
    3.2096    1.5156   -0.4740 O   0  0  0  0  0  0  0  0  0  0  0  0
    4.9864    0.1768   -0.1146 N   0  0  0  0  0  0  0  0  0  0  0  0
    5.8916    1.3307   -0.0798 C   0  0  0  0  0  0  0  0  0  0  0  0
    7.1729    0.8446   -0.7404 C   0  0  0  0  0  0  0  0  0  0  0  0
    6.9267   -0.1427   -1.6907 O   0  0  0  0  0  0  0  0  0  0  0  0
    6.4817   -1.3422   -1.1495 C   0  0  0  0  0  0  0  0  0  0  0  0
    5.6112   -1.0982    0.0824 C   0  0  0  0  0  0  0  0  0  0  0  0
    0.5932    0.3598   -1.0802 C   0  0  0  0  0  0  0  0  0  0  0  0
   -0.7934    0.3113   -1.2722 C   0  0  0  0  0  0  0  0  0  0  0  0
   -4.7344    0.5603   -0.9420 C   0  0  0  0  0  0  0  0  0  0  0  0
   -5.7537    1.1118   -0.2136 C   0  0  0  0  0  0  0  0  0  0  0  0
   -6.5695    2.0207   -0.7977 F   0  0  0  0  0  0  0  0  0  0  0  0
   -8.9268    1.8853    0.4983 H   0  0  0  0  0  0  0  0  0  0  0  0
   -8.6273    0.2008    0.6737 H   0  0  0  0  0  0  0  0  0  0  0  0
   -5.2534   -0.4670    2.6947 H   0  0  0  0  0  0  0  0  0  0  0  0
   -1.3559   -2.8247   -0.2523 H   0  0  0  0  0  0  0  0  0  0  0  0
    1.0848   -2.7133    0.0944 H   0  0  0  0  0  0  0  0  0  0  0  0
    3.1164   -1.7248   -0.2522 H   0  0  0  0  0  0  0  0  0  0  0  0
    5.4207    2.1565   -0.6094 H   0  0  0  0  0  0  0  0  0  0  0  0
    6.0931    1.5214    0.9932 H   0  0  0  0  0  0  0  0  0  0  0  0
    7.8776    0.4774    0.0382 H   0  0  0  0  0  0  0  0  0  0  0  0
    7.6170    1.7001   -1.2784 H   0  0  0  0  0  0  0  0  0  0  0  0
    5.8124   -1.8085   -1.9092 H   0  0  0  0  0  0  0  0  0  0  0  0
    7.2992   -2.0509   -0.9480 H   0  0  0  0  0  0  0  0  0  0  0  0
    6.3525   -1.0561    0.9482 H   0  0  0  0  0  0  0  0  0  0  0  0
    4.9617   -1.9323    0.3256 H   0  0  0  0  0  0  0  0  0  0  0  0
    1.1237    1.2784   -1.3406 H   0  0  0  0  0  0  0  0  0  0  0  0
   -1.2855    1.1771   -1.6561 H   0  0  0  0  0  0  0  0  0  0  0  0
   -4.5742    0.8397   -1.9704 H   0  0  0  0  0  0  0  0  0  0  0  0
  1  2  1  0
  2  3  2  0
  2  4  2  0
  2  5  1  0
  5  6  2  0
  6  7  1  0
  7  8  1  0
  7  9  2  0
  9 10  1  0
 10 11  1  0
 11 12  2  0
 12 13  1  0
 13 14  2  0
 14 15  1  0
 15 16  1  0
 16 17  2  0
 16 18  1  0
 18 19  1  0
 19 20  1  0
 20 21  1  0
 21 22  1  0
 22 23  1  0
 14 24  1  0
 24 25  2  0
  9 26  1  0
 26 27  2  0
 27 28  1  0
 27  5  1  0
 25 11  1  0
 23 18  1  0
  1 29  1  0
  1 30  1  0
  6 31  1  0
 12 32  1  0
 13 33  1  0
 15 34  1  0
 19 35  1  0
 19 36  1  0
 20 37  1  0
 20 38  1  0
 22 39  1  0
 22 40  1  0
 23 41  1  0
 23 42  1  0
 24 43  1  0
 25 44  1  0
 26 45  1  0
M  END
$$$$
[H]c1c([H])c([H])c2c(c1[H])c1c3c(c4c5c([H])c([H])c([H])c([H])c5n5c4c1n2[C@@]1(C([H])([H])[H])O[C@]5([H])C([H])([H])[C@@]([H])(N([H])C([H])([H])[H])[C@]1([H])OC([H])([H])[H])C(=O)N([H])C3([H])[H]
     RDKit          3D

 61 68  0  0  0  0  0  0  0  0999 V2000
   -4.2237   -2.8432    0.3826 C   0  0  0  0  0  0  0  0  0  0  0  0
   -3.9057   -1.4325    0.5018 N   0  0  0  0  0  0  0  0  0  0  0  0
   -2.8904   -1.1052   -0.4771 C   0  0  2  0  0  0  0  0  0  0  0  0
   -1.6096   -1.8440   -0.2521 C   0  0  0  0  0  0  0  0  0  0  0  0
   -0.7088   -1.5028   -1.4165 C   0  0  1  0  0  0  0  0  0  0  0  0
   -0.8845   -0.3006   -1.9539 O   0  0  0  0  0  0  0  0  0  0  0  0
   -1.3461    0.7528   -1.1378 C   0  0  1  0  0  0  0  0  0  0  0  0
   -1.7403    1.7918   -2.2066 C   0  0  0  0  0  0  0  0  0  0  0  0
   -2.5519    0.3972   -0.3647 C   0  0  1  0  0  0  0  0  0  0  0  0
   -3.7280    1.0404   -0.7349 O   0  0  0  0  0  0  0  0  0  0  0  0
   -4.4091    1.6430    0.2931 C   0  0  0  0  0  0  0  0  0  0  0  0
   -0.2432    1.3012   -0.3712 N   0  0  0  0  0  0  0  0  0  0  0  0
   -0.1500    2.5723    0.1151 C   0  0  0  0  0  0  0  0  0  0  0  0
   -1.0130    3.6203    0.1152 C   0  0  0  0  0  0  0  0  0  0  0  0
   -0.6622    4.8168    0.7053 C   0  0  0  0  0  0  0  0  0  0  0  0
    0.5564    5.0071    1.3135 C   0  0  0  0  0  0  0  0  0  0  0  0
    1.4278    3.9124    1.3017 C   0  0  0  0  0  0  0  0  0  0  0  0
    1.0695    2.7394    0.7170 C   0  0  0  0  0  0  0  0  0  0  0  0
    1.7448    1.5602    0.6114 C   0  0  0  0  0  0  0  0  0  0  0  0
    3.0026    1.1148    1.0209 C   0  0  0  0  0  0  0  0  0  0  0  0
    4.0512    1.8684    1.7455 C   0  0  0  0  0  0  0  0  0  0  0  0
    5.1397    0.9552    1.9147 N   0  0  0  0  0  0  0  0  0  0  0  0
    4.7713   -0.3013    1.3242 C   0  0  0  0  0  0  0  0  0  0  0  0
    5.5554   -1.2594    1.3460 O   0  0  0  0  0  0  0  0  0  0  0  0
    3.4374   -0.1804    0.7736 C   0  0  0  0  0  0  0  0  0  0  0  0
    2.5811   -1.0261    0.1058 C   0  0  0  0  0  0  0  0  0  0  0  0
    2.6500   -2.3566   -0.2823 C   0  0  0  0  0  0  0  0  0  0  0  0
    3.6197   -3.3040   -0.1586 C   0  0  0  0  0  0  0  0  0  0  0  0
    3.3603   -4.5863   -0.6724 C   0  0  0  0  0  0  0  0  0  0  0  0
    2.1660   -4.8681   -1.2784 C   0  0  0  0  0  0  0  0  0  0  0  0
    1.1884   -3.9049   -1.4007 C   0  0  0  0  0  0  0  0  0  0  0  0
    1.4343   -2.6584   -0.9038 C   0  0  0  0  0  0  0  0  0  0  0  0
    0.6610   -1.5889   -0.9043 N   0  0  0  0  0  0  0  0  0  0  0  0
    1.3192   -0.5864   -0.3083 C   0  0  0  0  0  0  0  0  0  0  0  0
    0.9427    0.7002   -0.0433 C   0  0  0  0  0  0  0  0  0  0  0  0
   -5.1750   -3.0655    0.9449 H   0  0  0  0  0  0  0  0  0  0  0  0
   -3.4375   -3.4831    0.8520 H   0  0  0  0  0  0  0  0  0  0  0  0
   -4.3878   -3.1627   -0.6570 H   0  0  0  0  0  0  0  0  0  0  0  0
   -3.5372   -1.3003    1.4753 H   0  0  0  0  0  0  0  0  0  0  0  0
   -3.2760   -1.3576   -1.4683 H   0  0  0  0  0  0  0  0  0  0  0  0
   -1.1170   -1.5869    0.7072 H   0  0  0  0  0  0  0  0  0  0  0  0
   -1.7938   -2.9364   -0.2500 H   0  0  0  0  0  0  0  0  0  0  0  0
   -0.8365   -2.2959   -2.1809 H   0  0  0  0  0  0  0  0  0  0  0  0
   -2.7389    2.1947   -2.0710 H   0  0  0  0  0  0  0  0  0  0  0  0
   -1.0026    2.6042   -2.2901 H   0  0  0  0  0  0  0  0  0  0  0  0
   -1.7554    1.3331   -3.2327 H   0  0  0  0  0  0  0  0  0  0  0  0
   -2.3963    0.5380    0.7318 H   0  0  0  0  0  0  0  0  0  0  0  0
   -5.3222    2.1084   -0.1800 H   0  0  0  0  0  0  0  0  0  0  0  0
   -3.8691    2.4834    0.7750 H   0  0  0  0  0  0  0  0  0  0  0  0
   -4.8200    0.9287    1.0434 H   0  0  0  0  0  0  0  0  0  0  0  0
   -2.0049    3.5118   -0.3417 H   0  0  0  0  0  0  0  0  0  0  0  0
   -1.3998    5.6339    0.6763 H   0  0  0  0  0  0  0  0  0  0  0  0
    0.8459    5.9384    1.7795 H   0  0  0  0  0  0  0  0  0  0  0  0
    2.4090    4.0394    1.7823 H   0  0  0  0  0  0  0  0  0  0  0  0
    4.3999    2.7474    1.1660 H   0  0  0  0  0  0  0  0  0  0  0  0
    3.6319    2.2028    2.7259 H   0  0  0  0  0  0  0  0  0  0  0  0
    6.0324    1.1980    2.3917 H   0  0  0  0  0  0  0  0  0  0  0  0
    4.5530   -3.1288    0.3000 H   0  0  0  0  0  0  0  0  0  0  0  0
    4.1480   -5.3162   -0.5604 H   0  0  0  0  0  0  0  0  0  0  0  0
    1.9956   -5.8657   -1.6641 H   0  0  0  0  0  0  0  0  0  0  0  0
    0.2419   -4.1081   -1.8751 H   0  0  0  0  0  0  0  0  0  0  0  0
  1  2  1  0
  2  3  1  0
  3  4  1  0
  4  5  1  0
  5  6  1  0
  6  7  1  0
  7  8  1  6
  7  9  1  0
  9 10  1  0
 10 11  1  0
  7 12  1  0
 12 13  1  0
 13 14  2  0
 14 15  1  0
 15 16  2  0
 16 17  1  0
 17 18  2  0
 18 19  1  0
 19 20  2  0
 20 21  1  0
 21 22  1  0
 22 23  1  0
 23 24  2  0
 23 25  1  0
 25 26  2  0
 26 27  1  0
 27 28  2  0
 28 29  1  0
 29 30  2  0
 30 31  1  0
 31 32  2  0
 32 33  1  0
 33 34  1  0
 34 35  2  0
  9  3  1  0
 35 12  1  0
 33  5  1  0
 18 13  1  0
 35 19  1  0
 25 20  1  0
 34 26  1  0
 32 27  1  0
  1 36  1  0
  1 37  1  0
  1 38  1  0
  2 39  1  0
  3 40  1  6
  4 41  1  0
  4 42  1  0
  5 43  1  6
  8 44  1  0
  8 45  1  0
  8 46  1  0
  9 47  1  1
 11 48  1  0
 11 49  1  0
 11 50  1  0
 14 51  1  0
 15 52  1  0
 16 53  1  0
 17 54  1  0
 21 55  1  0
 21 56  1  0
 22 57  1  0
 28 58  1  0
 29 59  1  0
 30 60  1  0
 31 61  1  0
M  END
$$$$
[H]c1c(Cl)c([H])c(C([H])([H])[H])c(OC([H])([H])C([H])([H])C([H])([H])c2c([H])c(C([H])([H])[H])n(C([H])([H])[H])c2[H])c1C(=O)N([H])C(C([H])([H])[H])(C([H])([H])[H])C([H])([H])[H]
     RDKit          3D

 55 56  0  0  0  0  0  0  0  0999 V2000
    0.5363    2.4517    2.0575 C   0  0  0  0  0  0  0  0  0  0  0  0
   -0.4179    1.3299    2.3730 C   0  0  0  0  0  0  0  0  0  0  0  0
   -0.5157    0.8284    3.6376 C   0  0  0  0  0  0  0  0  0  0  0  0
   -1.4399   -0.1618    3.9226 C   0  0  0  0  0  0  0  0  0  0  0  0
   -1.5672   -0.8182    5.5616 Cl  0  0  0  0  0  0  0  0  0  0  0  0
   -2.2592   -0.6442    2.9585 C   0  0  0  0  0  0  0  0  0  0  0  0
   -2.1936   -0.1540    1.6415 C   0  0  0  0  0  0  0  0  0  0  0  0
   -3.2044   -0.5754    0.6989 C   0  0  0  0  0  0  0  0  0  0  0  0
   -3.9314   -1.5929    1.0916 O   0  0  0  0  0  0  0  0  0  0  0  0
   -3.5621   -0.1188   -0.5594 N   0  0  0  0  0  0  0  0  0  0  0  0
   -4.6241   -0.7308   -1.3634 C   0  0  0  0  0  0  0  0  0  0  0  0
   -4.3218   -2.1815   -1.6485 C   0  0  0  0  0  0  0  0  0  0  0  0
   -4.7487   -0.0130   -2.6891 C   0  0  0  0  0  0  0  0  0  0  0  0
   -5.9693   -0.6560   -0.7024 C   0  0  0  0  0  0  0  0  0  0  0  0
   -1.2663    0.8266    1.3616 C   0  0  0  0  0  0  0  0  0  0  0  0
   -1.0740    1.3727    0.1366 O   0  0  0  0  0  0  0  0  0  0  0  0
   -0.3197    1.0119   -0.9388 C   0  0  0  0  0  0  0  0  0  0  0  0
    1.1236    0.7856   -0.9460 C   0  0  0  0  0  0  0  0  0  0  0  0
    1.7009   -0.3454   -0.1727 C   0  0  0  0  0  0  0  0  0  0  0  0
    3.1987   -0.2954   -0.4180 C   0  0  0  0  0  0  0  0  0  0  0  0
    3.9145   -0.9113   -1.4045 C   0  0  0  0  0  0  0  0  0  0  0  0
    5.2517   -0.6105   -1.2764 C   0  0  0  0  0  0  0  0  0  0  0  0
    6.3829   -1.0803   -2.1512 C   0  0  0  0  0  0  0  0  0  0  0  0
    5.3510    0.1945   -0.2040 N   0  0  0  0  0  0  0  0  0  0  0  0
    6.5875    0.7536    0.2964 C   0  0  0  0  0  0  0  0  0  0  0  0
    4.1175    0.4026    0.3373 C   0  0  0  0  0  0  0  0  0  0  0  0
    0.5302    3.1774    2.9082 H   0  0  0  0  0  0  0  0  0  0  0  0
    0.2031    2.9350    1.1412 H   0  0  0  0  0  0  0  0  0  0  0  0
    1.5463    2.0373    1.8959 H   0  0  0  0  0  0  0  0  0  0  0  0
    0.1278    1.2020    4.4228 H   0  0  0  0  0  0  0  0  0  0  0  0
   -2.9775   -1.4066    3.1589 H   0  0  0  0  0  0  0  0  0  0  0  0
   -3.1309    0.7009   -0.9941 H   0  0  0  0  0  0  0  0  0  0  0  0
   -4.5537   -2.4803   -2.6908 H   0  0  0  0  0  0  0  0  0  0  0  0
   -3.2532   -2.3995   -1.4360 H   0  0  0  0  0  0  0  0  0  0  0  0
   -4.9293   -2.8007   -0.9587 H   0  0  0  0  0  0  0  0  0  0  0  0
   -3.9963   -0.3049   -3.4270 H   0  0  0  0  0  0  0  0  0  0  0  0
   -5.7927   -0.1282   -3.0573 H   0  0  0  0  0  0  0  0  0  0  0  0
   -4.6167    1.1000   -2.5485 H   0  0  0  0  0  0  0  0  0  0  0  0
   -6.2176    0.3534   -0.3147 H   0  0  0  0  0  0  0  0  0  0  0  0
   -6.7234   -0.8288   -1.5283 H   0  0  0  0  0  0  0  0  0  0  0  0
   -6.1393   -1.4614    0.0146 H   0  0  0  0  0  0  0  0  0  0  0  0
   -0.5508    1.8324   -1.7382 H   0  0  0  0  0  0  0  0  0  0  0  0
   -0.7807    0.1076   -1.4853 H   0  0  0  0  0  0  0  0  0  0  0  0
    1.7435    1.6877   -0.7082 H   0  0  0  0  0  0  0  0  0  0  0  0
    1.4307    0.5791   -2.0326 H   0  0  0  0  0  0  0  0  0  0  0  0
    1.4046   -1.3473   -0.5744 H   0  0  0  0  0  0  0  0  0  0  0  0
    1.6194   -0.3038    0.9202 H   0  0  0  0  0  0  0  0  0  0  0  0
    3.5124   -1.5459   -2.1820 H   0  0  0  0  0  0  0  0  0  0  0  0
    6.0404   -1.2527   -3.1861 H   0  0  0  0  0  0  0  0  0  0  0  0
    7.1512   -0.2633   -2.2031 H   0  0  0  0  0  0  0  0  0  0  0  0
    6.8163   -2.0244   -1.7949 H   0  0  0  0  0  0  0  0  0  0  0  0
    6.4438    1.7582    0.7473 H   0  0  0  0  0  0  0  0  0  0  0  0
    7.3417    0.8691   -0.5067 H   0  0  0  0  0  0  0  0  0  0  0  0
    7.0414    0.1290    1.0948 H   0  0  0  0  0  0  0  0  0  0  0  0
    3.9599    1.0102    1.1953 H   0  0  0  0  0  0  0  0  0  0  0  0
  1  2  1  0
  2  3  2  0
  3  4  1  0
  4  5  1  0
  4  6  2  0
  6  7  1  0
  7  8  1  0
  8  9  2  0
  8 10  1  0
 10 11  1  0
 11 12  1  0
 11 13  1  0
 11 14  1  0
  7 15  2  0
 15 16  1  0
 16 17  1  0
 17 18  1  0
 18 19  1  0
 19 20  1  0
 20 21  1  0
 21 22  2  0
 22 23  1  0
 22 24  1  0
 24 25  1  0
 24 26  1  0
 15  2  1  0
 26 20  2  0
  1 27  1  0
  1 28  1  0
  1 29  1  0
  3 30  1  0
  6 31  1  0
 10 32  1  0
 12 33  1  0
 12 34  1  0
 12 35  1  0
 13 36  1  0
 13 37  1  0
 13 38  1  0
 14 39  1  0
 14 40  1  0
 14 41  1  0
 17 42  1  0
 17 43  1  0
 18 44  1  0
 18 45  1  0
 19 46  1  0
 19 47  1  0
 21 48  1  0
 23 49  1  0
 23 50  1  0
 23 51  1  0
 25 52  1  0
 25 53  1  0
 25 54  1  0
 26 55  1  0
M  END
$$$$
[H]c1nc(C(=O)N2C([H])([H])C([H])([H])C([H])([H])[C@@]2([H])C(=O)N([H])C([H])([H])c2c([H])c([H])c([H])c(C(F)(F)F)c2[H])c([H])c([H])c1-c1c([H])c([H])c([H])c(C([H])([H])C([H])([H])[H])c1[H]
     RDKit          3D

 61 64  0  0  0  0  0  0  0  0999 V2000
    8.8616   -1.9332    1.0931 C   0  0  0  0  0  0  0  0  0  0  0  0
    8.5771   -1.6448   -0.3631 C   0  0  0  0  0  0  0  0  0  0  0  0
    7.6656   -0.4734   -0.3879 C   0  0  0  0  0  0  0  0  0  0  0  0
    8.1838    0.8059   -0.4470 C   0  0  0  0  0  0  0  0  0  0  0  0
    7.3524    1.9058   -0.4563 C   0  0  0  0  0  0  0  0  0  0  0  0
    5.9684    1.7476   -0.4058 C   0  0  0  0  0  0  0  0  0  0  0  0
    5.4238    0.4937   -0.3467 C   0  0  0  0  0  0  0  0  0  0  0  0
    6.3102   -0.5913   -0.3399 C   0  0  0  0  0  0  0  0  0  0  0  0
    4.0044    0.2403   -0.2479 C   0  0  0  0  0  0  0  0  0  0  0  0
    3.4473   -0.8724   -0.8201 C   0  0  0  0  0  0  0  0  0  0  0  0
    2.1126   -1.2167   -0.7117 C   0  0  0  0  0  0  0  0  0  0  0  0
    1.2571   -0.3912    0.0239 C   0  0  0  0  0  0  0  0  0  0  0  0
    1.8119    0.6908    0.5689 N   0  0  0  0  0  0  0  0  0  0  0  0
    3.1127    1.0409    0.4721 C   0  0  0  0  0  0  0  0  0  0  0  0
   -0.1208   -0.8199    0.2056 C   0  0  0  0  0  0  0  0  0  0  0  0
   -0.4611   -1.9002   -0.4276 O   0  0  0  0  0  0  0  0  0  0  0  0
   -1.0923   -0.1797    1.0027 N   0  0  0  0  0  0  0  0  0  0  0  0
   -1.0408    1.0193    1.7812 C   0  0  0  0  0  0  0  0  0  0  0  0
   -1.6874    0.5495    3.1097 C   0  0  0  0  0  0  0  0  0  0  0  0
   -2.3275   -0.7683    2.8127 C   0  0  0  0  0  0  0  0  0  0  0  0
   -2.4087   -0.7175    1.2798 C   0  0  1  0  0  0  0  0  0  0  0  0
   -3.4538    0.1667    0.8130 C   0  0  0  0  0  0  0  0  0  0  0  0
   -4.4921    0.2529    1.5704 O   0  0  0  0  0  0  0  0  0  0  0  0
   -3.4619    0.9219   -0.3632 N   0  0  0  0  0  0  0  0  0  0  0  0
   -4.6200    1.7784   -0.6758 C   0  0  0  0  0  0  0  0  0  0  0  0
   -5.7818    0.9115   -1.0500 C   0  0  0  0  0  0  0  0  0  0  0  0
   -5.7659    0.1147   -2.1737 C   0  0  0  0  0  0  0  0  0  0  0  0
   -6.8396   -0.6921   -2.5077 C   0  0  0  0  0  0  0  0  0  0  0  0
   -7.9378   -0.6685   -1.6631 C   0  0  0  0  0  0  0  0  0  0  0  0
   -7.9589    0.1147   -0.5536 C   0  0  0  0  0  0  0  0  0  0  0  0
   -6.8777    0.9242   -0.2220 C   0  0  0  0  0  0  0  0  0  0  0  0
   -9.1587    0.1034    0.3341 C   0  0  0  0  0  0  0  0  0  0  0  0
   -9.7973    1.3252    0.2462 F   0  0  0  0  0  0  0  0  0  0  0  0
   -9.9551   -0.9654    0.0172 F   0  0  0  0  0  0  0  0  0  0  0  0
   -8.7274   -0.0519    1.6651 F   0  0  0  0  0  0  0  0  0  0  0  0
    9.5744   -2.7768    1.2068 H   0  0  0  0  0  0  0  0  0  0  0  0
    7.8737   -2.2606    1.5333 H   0  0  0  0  0  0  0  0  0  0  0  0
    9.2258   -0.9953    1.5683 H   0  0  0  0  0  0  0  0  0  0  0  0
    9.4803   -1.4244   -0.9576 H   0  0  0  0  0  0  0  0  0  0  0  0
    7.9897   -2.5177   -0.7439 H   0  0  0  0  0  0  0  0  0  0  0  0
    9.2744    0.8920   -0.4878 H   0  0  0  0  0  0  0  0  0  0  0  0
    7.8294    2.8914   -0.5110 H   0  0  0  0  0  0  0  0  0  0  0  0
    5.3739    2.6473   -0.4209 H   0  0  0  0  0  0  0  0  0  0  0  0
    5.8655   -1.5599   -0.2920 H   0  0  0  0  0  0  0  0  0  0  0  0
    4.0971   -1.5311   -1.3920 H   0  0  0  0  0  0  0  0  0  0  0  0
    1.7066   -2.1036   -1.1682 H   0  0  0  0  0  0  0  0  0  0  0  0
    3.5202    1.9371    0.9222 H   0  0  0  0  0  0  0  0  0  0  0  0
   -0.0563    1.4441    1.9810 H   0  0  0  0  0  0  0  0  0  0  0  0
   -1.7534    1.8072    1.4149 H   0  0  0  0  0  0  0  0  0  0  0  0
   -2.4591    1.2568    3.4551 H   0  0  0  0  0  0  0  0  0  0  0  0
   -0.8392    0.4563    3.8344 H   0  0  0  0  0  0  0  0  0  0  0  0
   -3.3352   -0.9133    3.2557 H   0  0  0  0  0  0  0  0  0  0  0  0
   -1.6262   -1.5842    3.0337 H   0  0  0  0  0  0  0  0  0  0  0  0
   -2.5092   -1.7611    0.8821 H   0  0  0  0  0  0  0  0  0  0  0  0
   -2.6960    0.9415   -1.0913 H   0  0  0  0  0  0  0  0  0  0  0  0
   -4.3701    2.4654   -1.5035 H   0  0  0  0  0  0  0  0  0  0  0  0
   -4.9026    2.3522    0.2184 H   0  0  0  0  0  0  0  0  0  0  0  0
   -4.8815    0.1588   -2.7867 H   0  0  0  0  0  0  0  0  0  0  0  0
   -6.8155   -1.3034   -3.3846 H   0  0  0  0  0  0  0  0  0  0  0  0
   -8.7712   -1.2839   -1.9002 H   0  0  0  0  0  0  0  0  0  0  0  0
   -6.9180    1.5449    0.6720 H   0  0  0  0  0  0  0  0  0  0  0  0
  1  2  1  0
  2  3  1  0
  3  4  2  0
  4  5  1  0
  5  6  2  0
  6  7  1  0
  7  8  2  0
  7  9  1  0
  9 10  2  0
 10 11  1  0
 11 12  2  0
 12 13  1  0
 13 14  2  0
 12 15  1  0
 15 16  2  0
 15 17  1  0
 17 18  1  0
 18 19  1  0
 19 20  1  0
 20 21  1  0
 21 22  1  0
 22 23  2  0
 22 24  1  0
 24 25  1  0
 25 26  1  0
 26 27  2  0
 27 28  1  0
 28 29  2  0
 29 30  1  0
 30 31  2  0
 30 32  1  0
 32 33  1  0
 32 34  1  0
 32 35  1  0
  8  3  1  0
 14  9  1  0
 21 17  1  0
 31 26  1  0
  1 36  1  0
  1 37  1  0
  1 38  1  0
  2 39  1  0
  2 40  1  0
  4 41  1  0
  5 42  1  0
  6 43  1  0
  8 44  1  0
 10 45  1  0
 11 46  1  0
 14 47  1  0
 18 48  1  0
 18 49  1  0
 19 50  1  0
 19 51  1  0
 20 52  1  0
 20 53  1  0
 21 54  1  6
 24 55  1  0
 25 56  1  0
 25 57  1  0
 27 58  1  0
 28 59  1  0
 29 60  1  0
 31 61  1  0
M  END
$$$$
[H]c1c([H])c(-c2c([H])c([H])c3c(c2[H])[C@]2(N=C(N([H])[H])C(C([H])([H])[H])=N2)[C@]2(C3([H])[H])C([H])([H])C([H])([H])[C@@]([H])(OC([H])([H])[H])C([H])([H])C2([H])[H])c([H])c([H])c1F
     RDKit          3D

 55 59  0  0  0  0  0  0  0  0999 V2000
   -5.7882   -1.8073   -2.0160 C   0  0  0  0  0  0  0  0  0  0  0  0
   -4.4710   -1.9109   -1.5631 O   0  0  0  0  0  0  0  0  0  0  0  0
   -4.1924   -0.8009   -0.7651 C   0  0  1  0  0  0  0  0  0  0  0  0
   -3.8630   -1.2087    0.6608 C   0  0  0  0  0  0  0  0  0  0  0  0
   -2.7979   -0.2731    1.2462 C   0  0  0  0  0  0  0  0  0  0  0  0
   -1.5268   -0.5596    0.5065 C   0  0  2  0  0  0  0  0  0  0  0  0
   -0.8904   -1.8135    1.0476 C   0  0  0  0  0  0  0  0  0  0  0  0
    0.5365   -1.6619    0.7034 C   0  0  0  0  0  0  0  0  0  0  0  0
    1.5603   -2.6174    0.5350 C   0  0  0  0  0  0  0  0  0  0  0  0
    2.8247   -2.1778    0.2194 C   0  0  0  0  0  0  0  0  0  0  0  0
    3.1232   -0.8398    0.0629 C   0  0  0  0  0  0  0  0  0  0  0  0
    2.0932    0.0496    0.2368 C   0  0  0  0  0  0  0  0  0  0  0  0
    0.8090   -0.3263    0.5524 C   0  0  0  0  0  0  0  0  0  0  0  0
   -0.4433    0.4688    0.7719 C   0  0  1  0  0  0  0  0  0  0  0  0
   -0.4976    1.5747   -0.1541 N   0  0  0  0  0  0  0  0  0  0  0  0
   -0.5941    2.6446    0.5483 C   0  0  0  0  0  0  0  0  0  0  0  0
   -0.6819    4.0585    0.0316 C   0  0  0  0  0  0  0  0  0  0  0  0
   -0.6087    2.3056    1.9613 C   0  0  0  0  0  0  0  0  0  0  0  0
   -0.7078    3.2664    3.0442 N   0  0  0  0  0  0  0  0  0  0  0  0
   -0.5200    1.0281    2.0861 N   0  0  0  0  0  0  0  0  0  0  0  0
    4.4845   -0.4112   -0.2737 C   0  0  0  0  0  0  0  0  0  0  0  0
    4.9809    0.8002    0.1593 C   0  0  0  0  0  0  0  0  0  0  0  0
    6.2759    1.2113   -0.1592 C   0  0  0  0  0  0  0  0  0  0  0  0
    7.1056    0.4171   -0.9203 C   0  0  0  0  0  0  0  0  0  0  0  0
    8.3610    0.8429   -1.2146 F   0  0  0  0  0  0  0  0  0  0  0  0
    6.6067   -0.7923   -1.3512 C   0  0  0  0  0  0  0  0  0  0  0  0
    5.3269   -1.2001   -1.0372 C   0  0  0  0  0  0  0  0  0  0  0  0
   -1.7502   -0.7674   -0.9740 C   0  0  0  0  0  0  0  0  0  0  0  0
   -3.0479   -0.0557   -1.3686 C   0  0  0  0  0  0  0  0  0  0  0  0
   -5.8585   -0.8678   -2.5982 H   0  0  0  0  0  0  0  0  0  0  0  0
   -6.0498   -2.6342   -2.6846 H   0  0  0  0  0  0  0  0  0  0  0  0
   -6.4896   -1.8197   -1.1627 H   0  0  0  0  0  0  0  0  0  0  0  0
   -5.0771   -0.1279   -0.6949 H   0  0  0  0  0  0  0  0  0  0  0  0
   -4.7400   -1.2340    1.3051 H   0  0  0  0  0  0  0  0  0  0  0  0
   -3.3982   -2.2011    0.6201 H   0  0  0  0  0  0  0  0  0  0  0  0
   -2.6679   -0.5887    2.2977 H   0  0  0  0  0  0  0  0  0  0  0  0
   -3.1122    0.7795    1.1753 H   0  0  0  0  0  0  0  0  0  0  0  0
   -1.3312   -2.7287    0.5978 H   0  0  0  0  0  0  0  0  0  0  0  0
   -1.0221   -1.8029    2.1475 H   0  0  0  0  0  0  0  0  0  0  0  0
    1.3366   -3.6575    0.6547 H   0  0  0  0  0  0  0  0  0  0  0  0
    3.6536   -2.8929    0.0792 H   0  0  0  0  0  0  0  0  0  0  0  0
    2.3252    1.1051    0.1142 H   0  0  0  0  0  0  0  0  0  0  0  0
   -1.7022    4.4512    0.0752 H   0  0  0  0  0  0  0  0  0  0  0  0
   -0.3122    4.0681   -1.0100 H   0  0  0  0  0  0  0  0  0  0  0  0
   -0.0010    4.7293    0.6129 H   0  0  0  0  0  0  0  0  0  0  0  0
    0.1092    3.7331    3.4473 H   0  0  0  0  0  0  0  0  0  0  0  0
   -1.6522    3.4964    3.4342 H   0  0  0  0  0  0  0  0  0  0  0  0
    4.3342    1.4293    0.7576 H   0  0  0  0  0  0  0  0  0  0  0  0
    6.6689    2.1639    0.1802 H   0  0  0  0  0  0  0  0  0  0  0  0
    7.2566   -1.4146   -1.9475 H   0  0  0  0  0  0  0  0  0  0  0  0
    4.9195   -2.1555   -1.3722 H   0  0  0  0  0  0  0  0  0  0  0  0
   -0.8986   -0.3394   -1.5516 H   0  0  0  0  0  0  0  0  0  0  0  0
   -1.9233   -1.8442   -1.2137 H   0  0  0  0  0  0  0  0  0  0  0  0
   -3.0713   -0.0494   -2.4632 H   0  0  0  0  0  0  0  0  0  0  0  0
   -3.0036    0.9586   -0.9136 H   0  0  0  0  0  0  0  0  0  0  0  0
  1  2  1  0
  2  3  1  0
  3  4  1  0
  4  5  1  0
  6  5  1  1
  6  7  1  0
  7  8  1  0
  8  9  2  0
  9 10  1  0
 10 11  2  0
 11 12  1  0
 12 13  2  0
 13 14  1  0
 14 15  1  6
 15 16  2  0
 16 17  1  0
 16 18  1  0
 18 19  1  0
 18 20  2  0
 11 21  1  0
 21 22  2  0
 22 23  1  0
 23 24  2  0
 24 25  1  0
 24 26  1  0
 26 27  2  0
  6 28  1  0
 28 29  1  0
 29  3  1  0
 14  6  1  0
 20 14  1  0
 27 21  1  0
 13  8  1  0
  1 30  1  0
  1 31  1  0
  1 32  1  0
  3 33  1  1
  4 34  1  0
  4 35  1  0
  5 36  1  0
  5 37  1  0
  7 38  1  0
  7 39  1  0
  9 40  1  0
 10 41  1  0
 12 42  1  0
 17 43  1  0
 17 44  1  0
 17 45  1  0
 19 46  1  0
 19 47  1  0
 22 48  1  0
 23 49  1  0
 26 50  1  0
 27 51  1  0
 28 52  1  0
 28 53  1  0
 29 54  1  0
 29 55  1  0
M  END
$$$$
[H]c1nc(N([H])c2nn([H])c(C([H])([H])[H])c2[H])nc(N([H])c2c([H])c([H])c(C(=O)N([H])C([H])([H])[H])c([H])c2[H])c1Cl
     RDKit          3D

 41 43  0  0  0  0  0  0  0  0999 V2000
    7.0254    0.2482   -2.5159 C   0  0  0  0  0  0  0  0  0  0  0  0
    5.7640    0.1662   -1.7890 N   0  0  0  0  0  0  0  0  0  0  0  0
    5.6237    0.7163   -0.4990 C   0  0  0  0  0  0  0  0  0  0  0  0
    6.6126    1.2854    0.0223 O   0  0  0  0  0  0  0  0  0  0  0  0
    4.3769    0.6479    0.2467 C   0  0  0  0  0  0  0  0  0  0  0  0
    4.2886    1.2082    1.5276 C   0  0  0  0  0  0  0  0  0  0  0  0
    3.1209    1.1493    2.2361 C   0  0  0  0  0  0  0  0  0  0  0  0
    1.9584    0.5331    1.7297 C   0  0  0  0  0  0  0  0  0  0  0  0
    0.7927    0.4914    2.5288 N   0  0  0  0  0  0  0  0  0  0  0  0
   -0.5328    0.2514    2.1163 C   0  0  0  0  0  0  0  0  0  0  0  0
   -0.8983    0.0577    0.8414 N   0  0  0  0  0  0  0  0  0  0  0  0
   -2.1668   -0.1545    0.4304 C   0  0  0  0  0  0  0  0  0  0  0  0
   -2.4853   -0.3515   -0.9286 N   0  0  0  0  0  0  0  0  0  0  0  0
   -3.7432   -0.5798   -1.4928 C   0  0  0  0  0  0  0  0  0  0  0  0
   -4.9499   -0.6650   -0.8639 C   0  0  0  0  0  0  0  0  0  0  0  0
   -5.9462   -0.9050   -1.8291 C   0  0  0  0  0  0  0  0  0  0  0  0
   -7.3967   -1.0698   -1.6194 C   0  0  0  0  0  0  0  0  0  0  0  0
   -5.3023   -0.9530   -2.9817 N   0  0  0  0  0  0  0  0  0  0  0  0
   -4.0292   -0.7684   -2.8167 N   0  0  0  0  0  0  0  0  0  0  0  0
   -3.1003   -0.1672    1.3797 N   0  0  0  0  0  0  0  0  0  0  0  0
   -2.8315    0.0169    2.6816 C   0  0  0  0  0  0  0  0  0  0  0  0
   -1.5441    0.2306    3.0844 C   0  0  0  0  0  0  0  0  0  0  0  0
   -1.0940    0.4794    4.7541 Cl  0  0  0  0  0  0  0  0  0  0  0  0
    2.0467   -0.0067    0.4951 C   0  0  0  0  0  0  0  0  0  0  0  0
    3.2448    0.0523   -0.2357 C   0  0  0  0  0  0  0  0  0  0  0  0
    7.3136    1.3158   -2.5709 H   0  0  0  0  0  0  0  0  0  0  0  0
    7.7922   -0.2938   -1.9484 H   0  0  0  0  0  0  0  0  0  0  0  0
    6.9464   -0.1706   -3.5179 H   0  0  0  0  0  0  0  0  0  0  0  0
    4.9742   -0.3148   -2.2624 H   0  0  0  0  0  0  0  0  0  0  0  0
    5.1881    1.6760    1.8998 H   0  0  0  0  0  0  0  0  0  0  0  0
    3.0618    1.5810    3.2166 H   0  0  0  0  0  0  0  0  0  0  0  0
    0.9345    0.6629    3.5845 H   0  0  0  0  0  0  0  0  0  0  0  0
   -1.6744   -0.3272   -1.6378 H   0  0  0  0  0  0  0  0  0  0  0  0
   -5.2155   -0.5803    0.1791 H   0  0  0  0  0  0  0  0  0  0  0  0
   -7.6013   -2.1464   -1.5096 H   0  0  0  0  0  0  0  0  0  0  0  0
   -7.7647   -0.5676   -0.7086 H   0  0  0  0  0  0  0  0  0  0  0  0
   -7.9243   -0.7158   -2.5395 H   0  0  0  0  0  0  0  0  0  0  0  0
   -5.7670   -1.1192   -3.9068 H   0  0  0  0  0  0  0  0  0  0  0  0
   -3.6215    0.0014    3.4431 H   0  0  0  0  0  0  0  0  0  0  0  0
    1.2600   -0.5145   -0.0095 H   0  0  0  0  0  0  0  0  0  0  0  0
    3.2638   -0.4001   -1.2325 H   0  0  0  0  0  0  0  0  0  0  0  0
  1  2  1  0
  2  3  1  0
  3  4  2  0
  3  5  1  0
  5  6  2  0
  6  7  1  0
  7  8  2  0
  8  9  1  0
  9 10  1  0
 10 11  2  0
 11 12  1  0
 12 13  1  0
 13 14  1  0
 14 15  1  0
 15 16  2  0
 16 17  1  0
 16 18  1  0
 18 19  1  0
 12 20  2  0
 20 21  1  0
 21 22  2  0
 22 23  1  0
  8 24  1  0
 24 25  2  0
 25  5  1  0
 22 10  1  0
 19 14  2  0
  1 26  1  0
  1 27  1  0
  1 28  1  0
  2 29  1  0
  6 30  1  0
  7 31  1  0
  9 32  1  0
 13 33  1  0
 15 34  1  0
 17 35  1  0
 17 36  1  0
 17 37  1  0
 18 38  1  0
 21 39  1  0
 24 40  1  0
 25 41  1  0
M  END
$$$$
[H]OC(=O)C1([H])C([H])([H])C([H])([H])N(C(=O)[C@@]([H])(N([H])C(=O)[C@@]([H])(N([H])C(=O)[C@@]([H])(N([H])[H])C([H])([H])C([H])(C([H])([H])[H])C([H])([H])[H])C([H])([H])c2c([H])c([H])c([H])c([H])c2[H])C([H])([H])c2c([H])n([H])c3c([H])c([H])c([H])c([H])c23)C([H])([H])C1([H])[H]
     RDKit          3D

 83 86  0  0  0  0  0  0  0  0999 V2000
    3.8129    2.4681    3.5501 C   0  0  0  0  0  0  0  0  0  0  0  0
    4.2145    3.2427    2.3056 C   0  0  0  0  0  0  0  0  0  0  0  0
    5.2034    4.3098    2.8334 C   0  0  0  0  0  0  0  0  0  0  0  0
    4.9712    2.4001    1.3352 C   0  0  0  0  0  0  0  0  0  0  0  0
    4.2936    1.1885    0.8255 C   0  0  2  0  0  0  0  0  0  0  0  0
    5.2043    0.4939   -0.0958 N   0  0  0  0  0  0  0  0  0  0  0  0
    2.9641    1.3453    0.2225 C   0  0  0  0  0  0  0  0  0  0  0  0
    2.2195    2.2713    0.5728 O   0  0  0  0  0  0  0  0  0  0  0  0
    2.4571    0.4515   -0.7823 N   0  0  0  0  0  0  0  0  0  0  0  0
    1.1454    0.6096   -1.3709 C   0  0  1  0  0  0  0  0  0  0  0  0
    1.0020    0.0742   -2.7360 C   0  0  0  0  0  0  0  0  0  0  0  0
    1.8502    0.6006   -3.7892 C   0  0  0  0  0  0  0  0  0  0  0  0
    3.0556   -0.0033   -4.0723 C   0  0  0  0  0  0  0  0  0  0  0  0
    3.8880    0.4786   -5.0874 C   0  0  0  0  0  0  0  0  0  0  0  0
    3.5053    1.5717   -5.8205 C   0  0  0  0  0  0  0  0  0  0  0  0
    2.3178    2.1799   -5.5531 C   0  0  0  0  0  0  0  0  0  0  0  0
    1.4863    1.6959   -4.5366 C   0  0  0  0  0  0  0  0  0  0  0  0
    0.2178   -0.2221   -0.5024 C   0  0  0  0  0  0  0  0  0  0  0  0
    0.7031   -0.8242    0.4750 O   0  0  0  0  0  0  0  0  0  0  0  0
   -1.1643   -0.3394   -0.7474 N   0  0  0  0  0  0  0  0  0  0  0  0
   -2.0511   -1.1181    0.0921 C   0  0  1  0  0  0  0  0  0  0  0  0
   -3.1103   -0.2285    0.7608 C   0  0  0  0  0  0  0  0  0  0  0  0
   -2.4855    0.8359    1.5830 C   0  0  0  0  0  0  0  0  0  0  0  0
   -2.1504    0.7170    2.9413 C   0  0  0  0  0  0  0  0  0  0  0  0
   -1.5540    1.8390    3.3566 N   0  0  0  0  0  0  0  0  0  0  0  0
   -1.4937    2.6831    2.3032 C   0  0  0  0  0  0  0  0  0  0  0  0
   -0.9990    3.9653    2.1824 C   0  0  0  0  0  0  0  0  0  0  0  0
   -1.0615    4.6653    0.9882 C   0  0  0  0  0  0  0  0  0  0  0  0
   -1.6436    4.0266   -0.0955 C   0  0  0  0  0  0  0  0  0  0  0  0
   -2.1484    2.7477   -0.0182 C   0  0  0  0  0  0  0  0  0  0  0  0
   -2.0654    2.0878    1.1885 C   0  0  0  0  0  0  0  0  0  0  0  0
   -2.6966   -2.2039   -0.6829 C   0  0  0  0  0  0  0  0  0  0  0  0
   -2.4502   -2.2109   -1.9378 O   0  0  0  0  0  0  0  0  0  0  0  0
   -3.5390   -3.2180   -0.1978 N   0  0  0  0  0  0  0  0  0  0  0  0
   -3.9164   -3.3991    1.1842 C   0  0  0  0  0  0  0  0  0  0  0  0
   -3.9696   -4.9093    1.4394 C   0  0  0  0  0  0  0  0  0  0  0  0
   -5.1216   -5.5268    0.6703 C   0  0  0  0  0  0  0  0  0  0  0  0
   -5.3742   -4.7992   -0.6263 C   0  0  0  0  0  0  0  0  0  0  0  0
   -4.1134   -4.1958   -1.1218 C   0  0  0  0  0  0  0  0  0  0  0  0
   -4.7956   -6.9345    0.3499 C   0  0  0  0  0  0  0  0  0  0  0  0
   -4.5147   -7.9065    1.3062 O   0  0  0  0  0  0  0  0  0  0  0  0
   -4.7488   -7.3578   -0.8573 O   0  0  0  0  0  0  0  0  0  0  0  0
    2.8256    1.9755    3.4478 H   0  0  0  0  0  0  0  0  0  0  0  0
    3.7312    3.2019    4.3778 H   0  0  0  0  0  0  0  0  0  0  0  0
    4.5682    1.7234    3.8025 H   0  0  0  0  0  0  0  0  0  0  0  0
    3.3769    3.8268    1.9216 H   0  0  0  0  0  0  0  0  0  0  0  0
    4.9568    4.4634    3.9056 H   0  0  0  0  0  0  0  0  0  0  0  0
    5.0983    5.2370    2.2494 H   0  0  0  0  0  0  0  0  0  0  0  0
    6.2115    3.8607    2.7709 H   0  0  0  0  0  0  0  0  0  0  0  0
    5.3490    3.0527    0.5130 H   0  0  0  0  0  0  0  0  0  0  0  0
    5.8952    2.0613    1.8682 H   0  0  0  0  0  0  0  0  0  0  0  0
    4.2343    0.4457    1.7038 H   0  0  0  0  0  0  0  0  0  0  0  0
    5.9564    1.1212   -0.4390 H   0  0  0  0  0  0  0  0  0  0  0  0
    5.4915   -0.4379    0.2174 H   0  0  0  0  0  0  0  0  0  0  0  0
    3.0331   -0.3514   -1.1223 H   0  0  0  0  0  0  0  0  0  0  0  0
    0.8259    1.6759   -1.2702 H   0  0  0  0  0  0  0  0  0  0  0  0
   -0.0937    0.1519   -3.0039 H   0  0  0  0  0  0  0  0  0  0  0  0
    1.1385   -1.0562   -2.6617 H   0  0  0  0  0  0  0  0  0  0  0  0
    3.4142   -0.8542   -3.5468 H   0  0  0  0  0  0  0  0  0  0  0  0
    4.8253   -0.0244   -5.2788 H   0  0  0  0  0  0  0  0  0  0  0  0
    4.1705    1.9436   -6.6210 H   0  0  0  0  0  0  0  0  0  0  0  0
    2.0205    3.0375   -6.1318 H   0  0  0  0  0  0  0  0  0  0  0  0
    0.5641    2.1919   -4.3497 H   0  0  0  0  0  0  0  0  0  0  0  0
   -1.5698    0.1402   -1.5728 H   0  0  0  0  0  0  0  0  0  0  0  0
   -1.5030   -1.6007    0.9421 H   0  0  0  0  0  0  0  0  0  0  0  0
   -3.7165    0.2665   -0.0557 H   0  0  0  0  0  0  0  0  0  0  0  0
   -3.7550   -0.7953    1.4566 H   0  0  0  0  0  0  0  0  0  0  0  0
   -2.3379   -0.1386    3.5652 H   0  0  0  0  0  0  0  0  0  0  0  0
   -1.2020    2.0089    4.3399 H   0  0  0  0  0  0  0  0  0  0  0  0
   -0.5463    4.4430    3.0547 H   0  0  0  0  0  0  0  0  0  0  0  0
   -0.6668    5.6761    0.9169 H   0  0  0  0  0  0  0  0  0  0  0  0
   -1.6988    4.5551   -1.0335 H   0  0  0  0  0  0  0  0  0  0  0  0
   -2.6115    2.2730   -0.8786 H   0  0  0  0  0  0  0  0  0  0  0  0
   -4.8807   -2.9247    1.4452 H   0  0  0  0  0  0  0  0  0  0  0  0
   -3.1062   -3.0453    1.8824 H   0  0  0  0  0  0  0  0  0  0  0  0
   -3.0265   -5.3248    1.0623 H   0  0  0  0  0  0  0  0  0  0  0  0
   -4.1404   -5.1033    2.5178 H   0  0  0  0  0  0  0  0  0  0  0  0
   -6.0632   -5.4922    1.3024 H   0  0  0  0  0  0  0  0  0  0  0  0
   -5.7268   -5.5191   -1.4274 H   0  0  0  0  0  0  0  0  0  0  0  0
   -6.1393   -4.0044   -0.5157 H   0  0  0  0  0  0  0  0  0  0  0  0
   -4.3938   -3.5876   -2.0358 H   0  0  0  0  0  0  0  0  0  0  0  0
   -3.3569   -4.9217   -1.4383 H   0  0  0  0  0  0  0  0  0  0  0  0
   -4.4967   -7.7033    2.2843 H   0  0  0  0  0  0  0  0  0  0  0  0
  1  2  1  0
  2  3  1  0
  2  4  1  0
  4  5  1  0
  5  6  1  0
  5  7  1  0
  7  8  2  0
  7  9  1  0
  9 10  1  0
 10 11  1  0
 11 12  1  0
 12 13  2  0
 13 14  1  0
 14 15  2  0
 15 16  1  0
 16 17  2  0
 10 18  1  0
 18 19  2  0
 18 20  1  0
 20 21  1  0
 21 22  1  0
 22 23  1  0
 23 24  2  0
 24 25  1  0
 25 26  1  0
 26 27  2  0
 27 28  1  0
 28 29  2  0
 29 30  1  0
 30 31  2  0
 21 32  1  0
 32 33  2  0
 32 34  1  0
 34 35  1  0
 35 36  1  0
 36 37  1  0
 37 38  1  0
 38 39  1  0
 37 40  1  0
 40 41  1  0
 40 42  2  0
 17 12  1  0
 31 23  1  0
 39 34  1  0
 31 26  1  0
  1 43  1  0
  1 44  1  0
  1 45  1  0
  2 46  1  0
  3 47  1  0
  3 48  1  0
  3 49  1  0
  4 50  1  0
  4 51  1  0
  5 52  1  1
  6 53  1  0
  6 54  1  0
  9 55  1  0
 10 56  1  6
 11 57  1  0
 11 58  1  0
 13 59  1  0
 14 60  1  0
 15 61  1  0
 16 62  1  0
 17 63  1  0
 20 64  1  0
 21 65  1  1
 22 66  1  0
 22 67  1  0
 24 68  1  0
 25 69  1  0
 27 70  1  0
 28 71  1  0
 29 72  1  0
 30 73  1  0
 35 74  1  0
 35 75  1  0
 36 76  1  0
 36 77  1  0
 37 78  1  0
 38 79  1  0
 38 80  1  0
 39 81  1  0
 39 82  1  0
 41 83  1  0
M  END
$$$$
[H]c1c([H])c([H])c(C([H])([H])[C@@]([H])(C(=O)N([H])[H])N([H])C(=O)[C@@]([H])(N([H])[C@]2([H])C([H])([H])C([H])([H])C([H])([H])C([H])([H])[C@]2([H])C([H])([H])[H])C([H])([H])C([H])([H])n2c([H])c([H])c([H])c([H])c2=O)c([H])c1[H]
     RDKit          3D

 66 68  0  0  0  0  0  0  0  0999 V2000
   -1.2059   -3.0678   -0.7865 C   0  0  0  0  0  0  0  0  0  0  0  0
   -2.1464   -1.9650   -0.3536 C   0  0  2  0  0  0  0  0  0  0  0  0
   -1.6813   -1.3186    0.9568 C   0  0  2  0  0  0  0  0  0  0  0  0
   -0.4714   -0.6579    0.8651 N   0  0  0  0  0  0  0  0  0  0  0  0
   -0.1368    0.3983    0.0527 C   0  0  1  0  0  0  0  0  0  0  0  0
   -0.7779    1.7330    0.1692 C   0  0  0  0  0  0  0  0  0  0  0  0
   -2.2316    1.7188   -0.0830 C   0  0  0  0  0  0  0  0  0  0  0  0
   -2.8214    3.0718    0.0261 N   0  0  0  0  0  0  0  0  0  0  0  0
   -3.3260    3.5284    1.1802 C   0  0  0  0  0  0  0  0  0  0  0  0
   -3.8862    4.7744    1.3218 C   0  0  0  0  0  0  0  0  0  0  0  0
   -3.9480    5.6199    0.2458 C   0  0  0  0  0  0  0  0  0  0  0  0
   -3.4305    5.1661   -0.9628 C   0  0  0  0  0  0  0  0  0  0  0  0
   -2.8727    3.8847   -1.0412 C   0  0  0  0  0  0  0  0  0  0  0  0
   -2.4276    3.5533   -2.1703 O   0  0  0  0  0  0  0  0  0  0  0  0
    1.3651    0.6131    0.2052 C   0  0  0  0  0  0  0  0  0  0  0  0
    2.1261    1.1998   -0.8233 N   0  0  0  0  0  0  0  0  0  0  0  0
    3.5501    1.4178   -0.6919 C   0  0  1  0  0  0  0  0  0  0  0  0
    4.3660    0.3746   -1.4517 C   0  0  0  0  0  0  0  0  0  0  0  0
    4.1040   -0.9883   -0.9497 C   0  0  0  0  0  0  0  0  0  0  0  0
    3.1366   -1.8231   -1.4717 C   0  0  0  0  0  0  0  0  0  0  0  0
    2.9445   -3.0851   -0.9363 C   0  0  0  0  0  0  0  0  0  0  0  0
    3.7003   -3.5509    0.1243 C   0  0  0  0  0  0  0  0  0  0  0  0
    4.6609   -2.7214    0.6427 C   0  0  0  0  0  0  0  0  0  0  0  0
    4.8710   -1.4577    0.1238 C   0  0  0  0  0  0  0  0  0  0  0  0
    3.8420    2.7945   -1.1228 C   0  0  0  0  0  0  0  0  0  0  0  0
    5.2115    3.2379   -1.0723 N   0  0  0  0  0  0  0  0  0  0  0  0
    2.9986    3.6288   -1.5360 O   0  0  0  0  0  0  0  0  0  0  0  0
    1.8877    0.2509    1.2644 O   0  0  0  0  0  0  0  0  0  0  0  0
   -1.3641   -2.6010    1.8244 C   0  0  0  0  0  0  0  0  0  0  0  0
   -2.6222   -3.3295    2.1254 C   0  0  0  0  0  0  0  0  0  0  0  0
   -3.4687   -3.6553    0.9406 C   0  0  0  0  0  0  0  0  0  0  0  0
   -3.5031   -2.5487   -0.0849 C   0  0  0  0  0  0  0  0  0  0  0  0
   -0.1665   -2.7635   -0.6052 H   0  0  0  0  0  0  0  0  0  0  0  0
   -1.4131   -3.2579   -1.8702 H   0  0  0  0  0  0  0  0  0  0  0  0
   -1.4232   -4.0278   -0.2755 H   0  0  0  0  0  0  0  0  0  0  0  0
   -2.2779   -1.2162   -1.1656 H   0  0  0  0  0  0  0  0  0  0  0  0
   -2.5433   -0.9068    1.4511 H   0  0  0  0  0  0  0  0  0  0  0  0
    0.2985   -0.9885    1.4998 H   0  0  0  0  0  0  0  0  0  0  0  0
   -0.1851    0.0572   -1.0504 H   0  0  0  0  0  0  0  0  0  0  0  0
   -0.2743    2.4685   -0.5367 H   0  0  0  0  0  0  0  0  0  0  0  0
   -0.5257    2.1978    1.1798 H   0  0  0  0  0  0  0  0  0  0  0  0
   -2.7192    1.1382    0.7361 H   0  0  0  0  0  0  0  0  0  0  0  0
   -2.5333    1.2510   -1.0350 H   0  0  0  0  0  0  0  0  0  0  0  0
   -3.2911    2.8805    2.0507 H   0  0  0  0  0  0  0  0  0  0  0  0
   -4.2994    5.1386    2.2697 H   0  0  0  0  0  0  0  0  0  0  0  0
   -4.3873    6.6224    0.3133 H   0  0  0  0  0  0  0  0  0  0  0  0
   -3.4627    5.8193   -1.8484 H   0  0  0  0  0  0  0  0  0  0  0  0
    1.6447    1.4956   -1.7345 H   0  0  0  0  0  0  0  0  0  0  0  0
    3.8305    1.2667    0.3806 H   0  0  0  0  0  0  0  0  0  0  0  0
    5.4411    0.6115   -1.3410 H   0  0  0  0  0  0  0  0  0  0  0  0
    4.1628    0.3919   -2.5440 H   0  0  0  0  0  0  0  0  0  0  0  0
    2.5359   -1.4774   -2.3010 H   0  0  0  0  0  0  0  0  0  0  0  0
    2.1933   -3.7790   -1.3162 H   0  0  0  0  0  0  0  0  0  0  0  0
    3.5445   -4.5471    0.5438 H   0  0  0  0  0  0  0  0  0  0  0  0
    5.2923   -3.0421    1.4928 H   0  0  0  0  0  0  0  0  0  0  0  0
    5.6351   -0.8270    0.5511 H   0  0  0  0  0  0  0  0  0  0  0  0
    5.8915    2.9528   -1.7828 H   0  0  0  0  0  0  0  0  0  0  0  0
    5.4520    3.8593   -0.2755 H   0  0  0  0  0  0  0  0  0  0  0  0
   -0.9490   -2.1625    2.7590 H   0  0  0  0  0  0  0  0  0  0  0  0
   -0.5621   -3.1666    1.3486 H   0  0  0  0  0  0  0  0  0  0  0  0
   -3.1811   -2.7755    2.9232 H   0  0  0  0  0  0  0  0  0  0  0  0
   -2.3239   -4.3040    2.5983 H   0  0  0  0  0  0  0  0  0  0  0  0
   -4.5170   -3.7710    1.3038 H   0  0  0  0  0  0  0  0  0  0  0  0
   -3.2147   -4.6206    0.4583 H   0  0  0  0  0  0  0  0  0  0  0  0
   -4.1657   -1.7426    0.3000 H   0  0  0  0  0  0  0  0  0  0  0  0
   -3.9492   -2.9709   -1.0083 H   0  0  0  0  0  0  0  0  0  0  0  0
  1  2  1  0
  2  3  1  0
  3  4  1  0
  4  5  1  0
  5  6  1  0
  6  7  1  0
  7  8  1  0
  8  9  1  0
  9 10  2  0
 10 11  1  0
 11 12  2  0
 12 13  1  0
 13 14  2  0
  5 15  1  0
 15 16  1  0
 16 17  1  0
 17 18  1  0
 18 19  1  0
 19 20  2  0
 20 21  1  0
 21 22  2  0
 22 23  1  0
 23 24  2  0
 17 25  1  0
 25 26  1  0
 25 27  2  0
 15 28  2  0
  3 29  1  0
 29 30  1  0
 30 31  1  0
 31 32  1  0
 32  2  1  0
 13  8  1  0
 24 19  1  0
  1 33  1  0
  1 34  1  0
  1 35  1  0
  2 36  1  6
  3 37  1  1
  4 38  1  0
  5 39  1  6
  6 40  1  0
  6 41  1  0
  7 42  1  0
  7 43  1  0
  9 44  1  0
 10 45  1  0
 11 46  1  0
 12 47  1  0
 16 48  1  0
 17 49  1  1
 18 50  1  0
 18 51  1  0
 20 52  1  0
 21 53  1  0
 22 54  1  0
 23 55  1  0
 24 56  1  0
 26 57  1  0
 26 58  1  0
 29 59  1  0
 29 60  1  0
 30 61  1  0
 30 62  1  0
 31 63  1  0
 31 64  1  0
 32 65  1  0
 32 66  1  0
M  END
$$$$
[H]c1nc([H])c([N+](=O)[O-])c([H])c1Oc1c([H])c([H])c(-c2c([H])c([H])c(C(=O)N([H])C([H])([H])[H])c([H])c2[H])c(C(F)(F)F)c1[H]
     RDKit          3D

 44 46  0  0  0  0  0  0  0  0999 V2000
   -8.1507    0.0378    0.3533 C   0  0  0  0  0  0  0  0  0  0  0  0
   -6.7415    0.0333   -0.0305 N   0  0  0  0  0  0  0  0  0  0  0  0
   -5.7082   -0.0495    0.9249 C   0  0  0  0  0  0  0  0  0  0  0  0
   -6.0184   -0.1206    2.1306 O   0  0  0  0  0  0  0  0  0  0  0  0
   -4.3007   -0.0537    0.5361 C   0  0  0  0  0  0  0  0  0  0  0  0
   -3.3127   -0.1373    1.5165 C   0  0  0  0  0  0  0  0  0  0  0  0
   -2.0117   -0.1405    1.1527 C   0  0  0  0  0  0  0  0  0  0  0  0
   -1.5611   -0.0655   -0.1519 C   0  0  0  0  0  0  0  0  0  0  0  0
   -2.5341    0.0159   -1.1144 C   0  0  0  0  0  0  0  0  0  0  0  0
   -3.8933    0.0223   -0.7756 C   0  0  0  0  0  0  0  0  0  0  0  0
   -0.1588   -0.1115   -0.5045 C   0  0  0  0  0  0  0  0  0  0  0  0
    0.5392   -1.3329   -0.4708 C   0  0  0  0  0  0  0  0  0  0  0  0
    1.8662   -1.4232   -0.8162 C   0  0  0  0  0  0  0  0  0  0  0  0
    2.5558   -0.2977   -1.2109 C   0  0  0  0  0  0  0  0  0  0  0  0
    3.8983   -0.3356   -1.5706 O   0  0  0  0  0  0  0  0  0  0  0  0
    4.8387   -0.1405   -0.5783 C   0  0  0  0  0  0  0  0  0  0  0  0
    5.2707    1.1403   -0.3093 C   0  0  0  0  0  0  0  0  0  0  0  0
    6.1765    1.3573    0.6420 N   0  0  0  0  0  0  0  0  0  0  0  0
    6.6998    0.3708    1.3660 C   0  0  0  0  0  0  0  0  0  0  0  0
    6.3167   -0.9133    1.1507 C   0  0  0  0  0  0  0  0  0  0  0  0
    5.3709   -1.1995    0.1667 C   0  0  0  0  0  0  0  0  0  0  0  0
    6.8512   -1.9761    1.8989 N   0  0  0  0  0  0  0  0  0  0  0  0
    6.4598   -3.2874    1.6789 O   0  0  0  0  0  0  0  0  0  0  0  0
    7.6927   -1.7517    2.7790 O   0  0  0  0  0  0  0  0  0  0  0  0
    1.9003    0.9052   -1.2525 C   0  0  0  0  0  0  0  0  0  0  0  0
    0.5403    0.9946   -0.8974 C   0  0  0  0  0  0  0  0  0  0  0  0
   -0.1029    2.3203   -0.9444 C   0  0  0  0  0  0  0  0  0  0  0  0
   -0.6128    2.6368    0.3245 F   0  0  0  0  0  0  0  0  0  0  0  0
    0.9264    3.2857   -1.1034 F   0  0  0  0  0  0  0  0  0  0  0  0
   -0.9711    2.5432   -1.9496 F   0  0  0  0  0  0  0  0  0  0  0  0
   -8.2883   -0.2791    1.4078 H   0  0  0  0  0  0  0  0  0  0  0  0
   -8.7054   -0.6162   -0.3535 H   0  0  0  0  0  0  0  0  0  0  0  0
   -8.5600    1.0598    0.2419 H   0  0  0  0  0  0  0  0  0  0  0  0
   -6.5610    0.0944   -1.0391 H   0  0  0  0  0  0  0  0  0  0  0  0
   -3.6683   -0.1964    2.5447 H   0  0  0  0  0  0  0  0  0  0  0  0
   -1.2556   -0.2059    1.9249 H   0  0  0  0  0  0  0  0  0  0  0  0
   -2.3403    0.0639   -2.1747 H   0  0  0  0  0  0  0  0  0  0  0  0
   -4.6484    0.0875   -1.5455 H   0  0  0  0  0  0  0  0  0  0  0  0
    0.0068   -2.2223   -0.1623 H   0  0  0  0  0  0  0  0  0  0  0  0
    2.4037   -2.3623   -0.7905 H   0  0  0  0  0  0  0  0  0  0  0  0
    4.8915    1.9913   -0.8553 H   0  0  0  0  0  0  0  0  0  0  0  0
    7.4292    0.6331    2.1182 H   0  0  0  0  0  0  0  0  0  0  0  0
    5.0266   -2.1820   -0.0535 H   0  0  0  0  0  0  0  0  0  0  0  0
    2.4442    1.8071   -1.5665 H   0  0  0  0  0  0  0  0  0  0  0  0
  1  2  1  0
  2  3  1  0
  3  4  2  0
  3  5  1  0
  5  6  2  0
  6  7  1  0
  7  8  2  0
  8  9  1  0
  9 10  2  0
  8 11  1  0
 11 12  2  0
 12 13  1  0
 13 14  2  0
 14 15  1  0
 15 16  1  0
 16 17  2  0
 17 18  1  0
 18 19  2  0
 19 20  1  0
 20 21  2  0
 20 22  1  0
 22 23  1  0
 22 24  2  0
 14 25  1  0
 25 26  2  0
 26 27  1  0
 27 28  1  0
 27 29  1  0
 27 30  1  0
 10  5  1  0
 26 11  1  0
 21 16  1  0
  1 31  1  0
  1 32  1  0
  1 33  1  0
  2 34  1  0
  6 35  1  0
  7 36  1  0
  9 37  1  0
 10 38  1  0
 12 39  1  0
 13 40  1  0
 17 41  1  0
 19 42  1  0
 21 43  1  0
 25 44  1  0
M  CHG  2  22   1  23  -1
M  END
$$$$
[H]c1nc(OC2([H])C([H])([H])C([H])([H])OC([H])([H])C2([H])[H])c([H])c([H])c1-c1nc2c([H])c([H])c(-c3nc(C([H])([H])[H])no3)c([H])c2n1[H]
     RDKit          3D

 47 51  0  0  0  0  0  0  0  0999 V2000
  -10.2692   -0.0703   -1.1671 C   0  0  0  0  0  0  0  0  0  0  0  0
   -8.7882   -0.1332   -1.2022 C   0  0  0  0  0  0  0  0  0  0  0  0
   -8.0839   -0.5515   -2.2674 N   0  0  0  0  0  0  0  0  0  0  0  0
   -6.7995   -0.4895   -1.9834 O   0  0  0  0  0  0  0  0  0  0  0  0
   -6.6296   -0.0431   -0.7631 C   0  0  0  0  0  0  0  0  0  0  0  0
   -7.8643    0.1780   -0.2784 N   0  0  0  0  0  0  0  0  0  0  0  0
   -5.3442    0.1656   -0.0829 C   0  0  0  0  0  0  0  0  0  0  0  0
   -5.3006    0.6432    1.2099 C   0  0  0  0  0  0  0  0  0  0  0  0
   -4.1315    0.8566    1.8922 C   0  0  0  0  0  0  0  0  0  0  0  0
   -2.9449    0.5644    1.2114 C   0  0  0  0  0  0  0  0  0  0  0  0
   -1.6840    0.6713    1.6147 N   0  0  0  0  0  0  0  0  0  0  0  0
   -0.8559    0.2702    0.6075 C   0  0  0  0  0  0  0  0  0  0  0  0
   -1.6593   -0.0837   -0.4209 N   0  0  0  0  0  0  0  0  0  0  0  0
   -2.9413    0.0899   -0.0689 C   0  0  0  0  0  0  0  0  0  0  0  0
   -4.1587   -0.1118   -0.7238 C   0  0  0  0  0  0  0  0  0  0  0  0
    0.5895    0.2418    0.6621 C   0  0  0  0  0  0  0  0  0  0  0  0
    1.2523    0.6399    1.7970 C   0  0  0  0  0  0  0  0  0  0  0  0
    2.6511    0.5941    1.8007 C   0  0  0  0  0  0  0  0  0  0  0  0
    3.3599    0.1640    0.7043 C   0  0  0  0  0  0  0  0  0  0  0  0
    4.7193    0.1091    0.6797 O   0  0  0  0  0  0  0  0  0  0  0  0
    5.5133   -0.3112   -0.3827 C   0  0  0  0  0  0  0  0  0  0  0  0
    6.3797   -1.5031   -0.0452 C   0  0  0  0  0  0  0  0  0  0  0  0
    7.6330   -1.0920    0.6873 C   0  0  0  0  0  0  0  0  0  0  0  0
    8.4265   -0.2364   -0.0346 O   0  0  0  0  0  0  0  0  0  0  0  0
    7.8074    0.3364   -1.1277 C   0  0  0  0  0  0  0  0  0  0  0  0
    6.3994    0.8062   -0.8271 C   0  0  0  0  0  0  0  0  0  0  0  0
    2.6631   -0.2152   -0.3827 N   0  0  0  0  0  0  0  0  0  0  0  0
    1.3181   -0.1815   -0.4140 C   0  0  0  0  0  0  0  0  0  0  0  0
  -10.6742    0.4894   -2.0559 H   0  0  0  0  0  0  0  0  0  0  0  0
  -10.5766    0.5573   -0.2875 H   0  0  0  0  0  0  0  0  0  0  0  0
  -10.7049   -1.0727   -1.0740 H   0  0  0  0  0  0  0  0  0  0  0  0
   -6.2359    0.8612    1.7132 H   0  0  0  0  0  0  0  0  0  0  0  0
   -4.0642    1.2292    2.9039 H   0  0  0  0  0  0  0  0  0  0  0  0
   -1.3265   -0.4390   -1.3495 H   0  0  0  0  0  0  0  0  0  0  0  0
   -4.1257   -0.4850   -1.7283 H   0  0  0  0  0  0  0  0  0  0  0  0
    0.7492    0.9821    2.6750 H   0  0  0  0  0  0  0  0  0  0  0  0
    3.2005    0.8978    2.6705 H   0  0  0  0  0  0  0  0  0  0  0  0
    4.8280   -0.5990   -1.2218 H   0  0  0  0  0  0  0  0  0  0  0  0
    6.6948   -2.0406   -0.9624 H   0  0  0  0  0  0  0  0  0  0  0  0
    5.8404   -2.2425    0.5788 H   0  0  0  0  0  0  0  0  0  0  0  0
    7.3584   -0.6435    1.6641 H   0  0  0  0  0  0  0  0  0  0  0  0
    8.2133   -2.0122    0.8994 H   0  0  0  0  0  0  0  0  0  0  0  0
    8.3949    1.2530   -1.4022 H   0  0  0  0  0  0  0  0  0  0  0  0
    7.8644   -0.3499   -1.9792 H   0  0  0  0  0  0  0  0  0  0  0  0
    6.4993    1.5365    0.0222 H   0  0  0  0  0  0  0  0  0  0  0  0
    5.9911    1.2652   -1.7279 H   0  0  0  0  0  0  0  0  0  0  0  0
    0.8161   -0.4955   -1.3074 H   0  0  0  0  0  0  0  0  0  0  0  0
  1  2  1  0
  2  3  2  0
  3  4  1  0
  4  5  1  0
  5  6  2  0
  5  7  1  0
  7  8  2  0
  8  9  1  0
  9 10  2  0
 10 11  1  0
 11 12  2  0
 12 13  1  0
 13 14  1  0
 14 15  2  0
 12 16  1  0
 16 17  2  0
 17 18  1  0
 18 19  2  0
 19 20  1  0
 20 21  1  0
 21 22  1  0
 22 23  1  0
 23 24  1  0
 24 25  1  0
 25 26  1  0
 19 27  1  0
 27 28  2  0
  6  2  1  0
 15  7  1  0
 28 16  1  0
 14 10  1  0
 26 21  1  0
  1 29  1  0
  1 30  1  0
  1 31  1  0
  8 32  1  0
  9 33  1  0
 13 34  1  0
 15 35  1  0
 17 36  1  0
 18 37  1  0
 21 38  1  0
 22 39  1  0
 22 40  1  0
 23 41  1  0
 23 42  1  0
 25 43  1  0
 25 44  1  0
 26 45  1  0
 26 46  1  0
 28 47  1  0
M  END
$$$$
[H]OC(=O)c1[se]c(-c2c([H])c([H])c(-c3c([H])c([H])c(Cl)c([H])c3[H])c(O[H])c2[H])nc1C([H])([H])[H]
     RDKit          3D

 35 37  0  0  0  0  0  0  0  0999 V2000
    5.2416   -1.9109    0.8336 C   0  0  0  0  0  0  0  0  0  0  0  0
    4.3343   -0.7562    0.3151 C   0  0  0  0  0  0  0  0  0  0  0  0
    3.0910   -0.8382    0.3646 N   0  0  0  0  0  0  0  0  0  0  0  0
    2.1327   -0.0835    0.0290 C   0  0  0  0  0  0  0  0  0  0  0  0
    3.3696    1.4712   -0.6935 Se  0  0  0  0  0  2  0  0  0  0  0  0
    5.0285    0.3058   -0.1770 C   0  0  0  0  0  0  0  0  0  0  0  0
    6.3892    0.6870   -0.3649 C   0  0  0  0  0  0  0  0  0  0  0  0
    6.7800    1.9023   -0.9235 O   0  0  0  0  0  0  0  0  0  0  0  0
    7.2755   -0.1235   -0.0042 O   0  0  0  0  0  0  0  0  0  0  0  0
    0.6969    0.0059    0.0021 C   0  0  0  0  0  0  0  0  0  0  0  0
    0.0223   -1.0767    0.5035 C   0  0  0  0  0  0  0  0  0  0  0  0
   -1.3597   -1.0754    0.5163 C   0  0  0  0  0  0  0  0  0  0  0  0
   -2.0682    0.0111    0.0265 C   0  0  0  0  0  0  0  0  0  0  0  0
   -3.5331    0.0220    0.0341 C   0  0  0  0  0  0  0  0  0  0  0  0
   -4.2241   -0.3813    1.1746 C   0  0  0  0  0  0  0  0  0  0  0  0
   -5.5918   -0.3837    1.2119 C   0  0  0  0  0  0  0  0  0  0  0  0
   -6.3226    0.0149    0.1164 C   0  0  0  0  0  0  0  0  0  0  0  0
   -8.0816    0.0178    0.1476 Cl  0  0  0  0  0  0  0  0  0  0  0  0
   -5.6840    0.4157   -1.0163 C   0  0  0  0  0  0  0  0  0  0  0  0
   -4.2931    0.4141   -1.0432 C   0  0  0  0  0  0  0  0  0  0  0  0
   -1.3902    1.1007   -0.4780 C   0  0  0  0  0  0  0  0  0  0  0  0
   -2.0868    2.1990   -0.9730 O   0  0  0  0  0  0  0  0  0  0  0  0
   -0.0047    1.0645   -0.4750 C   0  0  0  0  0  0  0  0  0  0  0  0
    4.6575   -2.6853    1.3189 H   0  0  0  0  0  0  0  0  0  0  0  0
    5.9589   -1.5108    1.5463 H   0  0  0  0  0  0  0  0  0  0  0  0
    5.7786   -2.3347   -0.0264 H   0  0  0  0  0  0  0  0  0  0  0  0
    6.1387    2.3967   -1.5239 H   0  0  0  0  0  0  0  0  0  0  0  0
    0.5556   -1.9561    0.9002 H   0  0  0  0  0  0  0  0  0  0  0  0
   -1.8930   -1.9191    0.9071 H   0  0  0  0  0  0  0  0  0  0  0  0
   -3.6430   -0.6941    2.0340 H   0  0  0  0  0  0  0  0  0  0  0  0
   -6.1481   -0.6975    2.0998 H   0  0  0  0  0  0  0  0  0  0  0  0
   -6.1980    0.7407   -1.9115 H   0  0  0  0  0  0  0  0  0  0  0  0
   -3.7995    0.7366   -1.9571 H   0  0  0  0  0  0  0  0  0  0  0  0
   -1.6539    3.0090   -1.3474 H   0  0  0  0  0  0  0  0  0  0  0  0
    0.5247    1.9119   -0.8674 H   0  0  0  0  0  0  0  0  0  0  0  0
  1  2  1  0
  2  3  1  0
  3  4  2  0
  4  5  1  0
  5  6  1  0
  6  7  1  0
  7  8  1  0
  7  9  2  0
  4 10  1  0
 10 11  2  0
 11 12  1  0
 12 13  2  0
 13 14  1  0
 14 15  2  0
 15 16  1  0
 16 17  2  0
 17 18  1  0
 17 19  1  0
 19 20  2  0
 13 21  1  0
 21 22  1  0
 21 23  2  0
  6  2  2  0
 23 10  1  0
 20 14  1  0
  1 24  1  0
  1 25  1  0
  1 26  1  0
  8 27  1  0
 11 28  1  0
 12 29  1  0
 15 30  1  0
 16 31  1  0
 19 32  1  0
 20 33  1  0
 22 34  1  0
 23 35  1  0
M  END
$$$$
[H]N=C(N([H])[H])N([H])C([H])([H])C([H])([H])C([H])([H])[C@@]([H])(C(=O)c1nc2c([H])c([H])c([H])c([H])c2s1)N([H])C(=O)[C@]([H])(N([H])C(=O)[C@@]([H])(N([H])C(=O)[C@@]([H])(N([H])C(=O)[C@@]([H])(N([H])C(=O)C([H])([H])[H])C([H])([H])C([H])([H])C([H])([H])C([H])([H])N([H])[H])C([H])([H])[H])C([H])(C([H])([H])[H])C([H])([H])[H])C([H])([H])C([H])(C([H])([H])[H])C([H])([H])[H]
     RDKit          3D

108109  0  0  0  0  0  0  0  0999 V2000
    1.6218   -2.6370   -2.2043 C   0  0  0  0  0  0  0  0  0  0  0  0
    0.4257   -1.7682   -1.8824 C   0  0  0  0  0  0  0  0  0  0  0  0
   -0.4851   -2.4474   -0.9207 C   0  0  0  0  0  0  0  0  0  0  0  0
    0.9181   -0.4070   -1.4531 C   0  0  2  0  0  0  0  0  0  0  0  0
    1.7685   -0.4951   -0.2721 N   0  0  0  0  0  0  0  0  0  0  0  0
    3.1477   -0.3510   -0.2854 C   0  0  0  0  0  0  0  0  0  0  0  0
    3.6865   -0.1580   -1.4291 O   0  0  0  0  0  0  0  0  0  0  0  0
    4.0064   -0.3944    0.8842 C   0  0  2  0  0  0  0  0  0  0  0  0
    3.7893    0.9206    1.7145 C   0  0  0  0  0  0  0  0  0  0  0  0
    5.4184   -0.2759    0.4821 N   0  0  0  0  0  0  0  0  0  0  0  0
    6.4438   -0.7933    1.3098 C   0  0  0  0  0  0  0  0  0  0  0  0
    6.2012   -1.3456    2.4078 O   0  0  0  0  0  0  0  0  0  0  0  0
    7.8710   -0.6651    0.8419 C   0  0  2  0  0  0  0  0  0  0  0  0
    8.3323   -2.0729    0.4834 C   0  0  0  0  0  0  0  0  0  0  0  0
    7.5215   -2.6808   -0.5822 C   0  0  0  0  0  0  0  0  0  0  0  0
    7.5039   -2.0357   -1.9098 C   0  0  0  0  0  0  0  0  0  0  0  0
    8.8389   -2.0160   -2.5883 C   0  0  0  0  0  0  0  0  0  0  0  0
    9.8083   -1.2646   -1.8781 N   0  0  0  0  0  0  0  0  0  0  0  0
    8.7009   -0.2736    1.9815 N   0  0  0  0  0  0  0  0  0  0  0  0
    9.5176    0.9019    1.9060 C   0  0  0  0  0  0  0  0  0  0  0  0
   10.3658    1.3356    3.0412 C   0  0  0  0  0  0  0  0  0  0  0  0
    9.4878    1.5711    0.8138 O   0  0  0  0  0  0  0  0  0  0  0  0
   -0.1439    0.5162   -1.0971 C   0  0  0  0  0  0  0  0  0  0  0  0
   -0.7306    0.3518   -0.0069 O   0  0  0  0  0  0  0  0  0  0  0  0
   -0.5873    1.6324   -1.8942 N   0  0  0  0  0  0  0  0  0  0  0  0
   -1.6411    2.5046   -1.4970 C   0  0  2  0  0  0  0  0  0  0  0  0
   -1.4050    3.7710   -0.8645 C   0  0  0  0  0  0  0  0  0  0  0  0
   -0.6778    4.0155    0.3708 C   0  0  0  0  0  0  0  0  0  0  0  0
    0.7825    3.5724    0.2755 C   0  0  0  0  0  0  0  0  0  0  0  0
   -1.1975    3.5617    1.6795 C   0  0  0  0  0  0  0  0  0  0  0  0
   -2.8370    1.7229   -1.0969 C   0  0  0  0  0  0  0  0  0  0  0  0
   -2.9736    0.5563   -1.6562 O   0  0  0  0  0  0  0  0  0  0  0  0
   -3.8557    2.0462   -0.2024 N   0  0  0  0  0  0  0  0  0  0  0  0
   -4.9812    1.1329    0.0531 C   0  0  1  0  0  0  0  0  0  0  0  0
   -4.5349    0.2155    1.2235 C   0  0  0  0  0  0  0  0  0  0  0  0
   -5.5424   -0.8057    1.5934 C   0  0  0  0  0  0  0  0  0  0  0  0
   -5.8384   -1.7539    0.4269 C   0  0  0  0  0  0  0  0  0  0  0  0
   -6.8119   -2.7493    0.8289 N   0  0  0  0  0  0  0  0  0  0  0  0
   -6.5098   -3.7713    1.7747 C   0  0  0  0  0  0  0  0  0  0  0  0
   -7.4619   -4.3247    2.6682 N   0  0  0  0  0  0  0  0  0  0  0  0
   -5.2766   -4.2172    1.8085 N   0  0  0  0  0  0  0  0  0  0  0  0
   -6.0912    1.9437    0.5402 C   0  0  0  0  0  0  0  0  0  0  0  0
   -5.8236    2.8594    1.4053 O   0  0  0  0  0  0  0  0  0  0  0  0
   -7.5006    1.8333    0.1461 C   0  0  0  0  0  0  0  0  0  0  0  0
   -8.1216    1.0615   -0.7086 N   0  0  0  0  0  0  0  0  0  0  0  0
   -9.4085    1.1530   -0.8990 C   0  0  0  0  0  0  0  0  0  0  0  0
  -10.1704    0.3766   -1.7984 C   0  0  0  0  0  0  0  0  0  0  0  0
  -11.5183    0.5885   -1.8976 C   0  0  0  0  0  0  0  0  0  0  0  0
  -12.2098    1.5265   -1.1664 C   0  0  0  0  0  0  0  0  0  0  0  0
  -11.4714    2.2817   -0.2919 C   0  0  0  0  0  0  0  0  0  0  0  0
  -10.0829    2.0971   -0.1594 C   0  0  0  0  0  0  0  0  0  0  0  0
   -8.8206    2.7849    0.7551 S   0  0  0  0  0  0  0  0  0  0  0  0
    1.3377   -3.6787   -2.4582 H   0  0  0  0  0  0  0  0  0  0  0  0
    2.3265   -2.7171   -1.3412 H   0  0  0  0  0  0  0  0  0  0  0  0
    2.1136   -2.2447   -3.1298 H   0  0  0  0  0  0  0  0  0  0  0  0
   -0.1304   -1.6176   -2.8308 H   0  0  0  0  0  0  0  0  0  0  0  0
   -1.5618   -2.3886   -1.1688 H   0  0  0  0  0  0  0  0  0  0  0  0
   -0.2382   -3.5298   -0.9437 H   0  0  0  0  0  0  0  0  0  0  0  0
   -0.3697   -2.1322    0.1429 H   0  0  0  0  0  0  0  0  0  0  0  0
    1.5427   -0.0288   -2.2674 H   0  0  0  0  0  0  0  0  0  0  0  0
    1.2787   -0.6750    0.6282 H   0  0  0  0  0  0  0  0  0  0  0  0
    3.9285   -1.1982    1.5933 H   0  0  0  0  0  0  0  0  0  0  0  0
    2.9050    0.8229    2.3404 H   0  0  0  0  0  0  0  0  0  0  0  0
    3.6989    1.7369    0.9739 H   0  0  0  0  0  0  0  0  0  0  0  0
    4.6757    1.0566    2.3612 H   0  0  0  0  0  0  0  0  0  0  0  0
    5.6655    0.1965   -0.4231 H   0  0  0  0  0  0  0  0  0  0  0  0
    7.8997    0.0462    0.0321 H   0  0  0  0  0  0  0  0  0  0  0  0
    9.4078   -2.1481    0.3523 H   0  0  0  0  0  0  0  0  0  0  0  0
    8.1356   -2.6956    1.4258 H   0  0  0  0  0  0  0  0  0  0  0  0
    7.8922   -3.7634   -0.6789 H   0  0  0  0  0  0  0  0  0  0  0  0
    6.4574   -2.7800   -0.1760 H   0  0  0  0  0  0  0  0  0  0  0  0
    6.7459   -2.6010   -2.5445 H   0  0  0  0  0  0  0  0  0  0  0  0
    7.1297   -0.9801   -1.8851 H   0  0  0  0  0  0  0  0  0  0  0  0
    8.7238   -1.6080   -3.6247 H   0  0  0  0  0  0  0  0  0  0  0  0
    9.1845   -3.0873   -2.7326 H   0  0  0  0  0  0  0  0  0  0  0  0
   10.7100   -1.7993   -1.7536 H   0  0  0  0  0  0  0  0  0  0  0  0
   10.0739   -0.3516   -2.2818 H   0  0  0  0  0  0  0  0  0  0  0  0
    8.7073   -0.8390    2.8410 H   0  0  0  0  0  0  0  0  0  0  0  0
   11.2001    0.6317    3.1458 H   0  0  0  0  0  0  0  0  0  0  0  0
    9.7940    1.3793    4.0019 H   0  0  0  0  0  0  0  0  0  0  0  0
   10.7684    2.3557    2.8062 H   0  0  0  0  0  0  0  0  0  0  0  0
   -0.0805    1.7576   -2.7751 H   0  0  0  0  0  0  0  0  0  0  0  0
   -2.0540    2.8185   -2.5860 H   0  0  0  0  0  0  0  0  0  0  0  0
   -0.9235    4.5016   -1.6205 H   0  0  0  0  0  0  0  0  0  0  0  0
   -2.4184    4.2956   -0.7593 H   0  0  0  0  0  0  0  0  0  0  0  0
   -0.5900    5.1519    0.4739 H   0  0  0  0  0  0  0  0  0  0  0  0
    1.4178    4.3567    0.7726 H   0  0  0  0  0  0  0  0  0  0  0  0
    0.8929    2.6780    0.9015 H   0  0  0  0  0  0  0  0  0  0  0  0
    1.1088    3.4415   -0.7624 H   0  0  0  0  0  0  0  0  0  0  0  0
   -0.6545    4.1503    2.4861 H   0  0  0  0  0  0  0  0  0  0  0  0
   -0.8877    2.5174    1.8744 H   0  0  0  0  0  0  0  0  0  0  0  0
   -2.2639    3.7399    1.8753 H   0  0  0  0  0  0  0  0  0  0  0  0
   -3.8592    2.9421    0.3015 H   0  0  0  0  0  0  0  0  0  0  0  0
   -5.2312    0.4694   -0.7353 H   0  0  0  0  0  0  0  0  0  0  0  0
   -3.6343   -0.3231    0.8029 H   0  0  0  0  0  0  0  0  0  0  0  0
   -4.1791    0.8237    2.0581 H   0  0  0  0  0  0  0  0  0  0  0  0
   -6.5041   -0.4017    1.9397 H   0  0  0  0  0  0  0  0  0  0  0  0
   -5.1230   -1.3947    2.4504 H   0  0  0  0  0  0  0  0  0  0  0  0
   -6.2365   -1.2386   -0.4569 H   0  0  0  0  0  0  0  0  0  0  0  0
   -4.8876   -2.2351    0.1008 H   0  0  0  0  0  0  0  0  0  0  0  0
   -7.7844   -2.7569    0.4376 H   0  0  0  0  0  0  0  0  0  0  0  0
   -7.6151   -5.3578    2.6791 H   0  0  0  0  0  0  0  0  0  0  0  0
   -8.0177   -3.7308    3.3185 H   0  0  0  0  0  0  0  0  0  0  0  0
   -5.0154   -4.9743    2.4941 H   0  0  0  0  0  0  0  0  0  0  0  0
   -9.7090   -0.3902   -2.4193 H   0  0  0  0  0  0  0  0  0  0  0  0
  -12.0692   -0.0495   -2.6184 H   0  0  0  0  0  0  0  0  0  0  0  0
  -13.2534    1.6639   -1.2663 H   0  0  0  0  0  0  0  0  0  0  0  0
  -11.8778    3.0522    0.3401 H   0  0  0  0  0  0  0  0  0  0  0  0
  1  2  1  0
  2  3  1  0
  2  4  1  0
  4  5  1  0
  5  6  1  0
  6  7  2  0
  6  8  1  0
  8  9  1  0
  8 10  1  0
 10 11  1  0
 11 12  2  0
 11 13  1  0
 13 14  1  0
 14 15  1  0
 15 16  1  0
 16 17  1  0
 17 18  1  0
 13 19  1  0
 19 20  1  0
 20 21  1  0
 20 22  2  0
  4 23  1  0
 23 24  2  0
 23 25  1  0
 25 26  1  0
 26 27  1  0
 27 28  1  0
 28 29  1  0
 28 30  1  0
 26 31  1  0
 31 32  2  0
 31 33  1  0
 33 34  1  0
 34 35  1  0
 35 36  1  0
 36 37  1  0
 37 38  1  0
 38 39  1  0
 39 40  1  0
 39 41  2  3
 34 42  1  0
 42 43  2  0
 42 44  1  0
 44 45  2  0
 45 46  1  0
 46 47  2  0
 47 48  1  0
 48 49  2  0
 49 50  1  0
 50 51  2  0
 51 52  1  0
 52 44  1  0
 51 46  1  0
  1 53  1  0
  1 54  1  0
  1 55  1  0
  2 56  1  0
  3 57  1  0
  3 58  1  0
  3 59  1  0
  4 60  1  6
  5 61  1  0
  8 62  1  1
  9 63  1  0
  9 64  1  0
  9 65  1  0
 10 66  1  0
 13 67  1  6
 14 68  1  0
 14 69  1  0
 15 70  1  0
 15 71  1  0
 16 72  1  0
 16 73  1  0
 17 74  1  0
 17 75  1  0
 18 76  1  0
 18 77  1  0
 19 78  1  0
 21 79  1  0
 21 80  1  0
 21 81  1  0
 25 82  1  0
 26 83  1  6
 27 84  1  0
 27 85  1  0
 28 86  1  0
 29 87  1  0
 29 88  1  0
 29 89  1  0
 30 90  1  0
 30 91  1  0
 30 92  1  0
 33 93  1  0
 34 94  1  6
 35 95  1  0
 35 96  1  0
 36 97  1  0
 36 98  1  0
 37 99  1  0
 37100  1  0
 38101  1  0
 40102  1  0
 40103  1  0
 41104  1  0
 47105  1  0
 48106  1  0
 49107  1  0
 50108  1  0
M  END
$$$$
[H]c1nc2nc(N([H])c3c([H])c([H])c([H])c(C(=O)N([H])C([H])([H])C([H])([H])N(C([H])([H])[H])C([H])([H])[H])c3[H])nc(N([H])c3c([H])c(C([H])([H])[H])c([H])c([H])c3OC([H])([H])[H])c2c([H])c1[H]
     RDKit          3D

 64 67  0  0  0  0  0  0  0  0999 V2000
   -8.7784    0.1831    0.4625 C   0  0  0  0  0  0  0  0  0  0  0  0
   -7.4335   -0.1824    0.4021 O   0  0  0  0  0  0  0  0  0  0  0  0
   -6.3890    0.7364    0.3498 C   0  0  0  0  0  0  0  0  0  0  0  0
   -6.7092    2.0701    0.3582 C   0  0  0  0  0  0  0  0  0  0  0  0
   -5.7473    3.0684    0.3092 C   0  0  0  0  0  0  0  0  0  0  0  0
   -4.4210    2.7166    0.2499 C   0  0  0  0  0  0  0  0  0  0  0  0
   -3.3935    3.7777    0.1970 C   0  0  0  0  0  0  0  0  0  0  0  0
   -4.1107    1.3486    0.2421 C   0  0  0  0  0  0  0  0  0  0  0  0
   -5.0527    0.3571    0.2901 C   0  0  0  0  0  0  0  0  0  0  0  0
   -4.7512   -1.0189    0.2804 N   0  0  0  0  0  0  0  0  0  0  0  0
   -3.5105   -1.6696    0.2309 C   0  0  0  0  0  0  0  0  0  0  0  0
   -2.3356   -1.0429    0.1880 N   0  0  0  0  0  0  0  0  0  0  0  0
   -1.1075   -1.6251    0.1411 C   0  0  0  0  0  0  0  0  0  0  0  0
    0.0520   -0.8102    0.1170 N   0  0  0  0  0  0  0  0  0  0  0  0
    1.3704   -1.2583    0.0561 C   0  0  0  0  0  0  0  0  0  0  0  0
    1.7886   -2.5063   -0.3416 C   0  0  0  0  0  0  0  0  0  0  0  0
    3.1401   -2.8180   -0.3274 C   0  0  0  0  0  0  0  0  0  0  0  0
    4.1236   -1.9268    0.0727 C   0  0  0  0  0  0  0  0  0  0  0  0
    3.7042   -0.6833    0.4677 C   0  0  0  0  0  0  0  0  0  0  0  0
    2.3789   -0.3633    0.4592 C   0  0  0  0  0  0  0  0  0  0  0  0
    4.7291    0.2868    0.8894 C   0  0  0  0  0  0  0  0  0  0  0  0
    4.3358    1.3082    1.5492 O   0  0  0  0  0  0  0  0  0  0  0  0
    6.0975    0.1579    0.6117 N   0  0  0  0  0  0  0  0  0  0  0  0
    7.1426    1.0718    0.9915 C   0  0  0  0  0  0  0  0  0  0  0  0
    6.9144    2.4043    0.3612 C   0  0  0  0  0  0  0  0  0  0  0  0
    6.8979    2.2495   -1.0847 N   0  0  0  0  0  0  0  0  0  0  0  0
    8.1976    1.8930   -1.6056 C   0  0  0  0  0  0  0  0  0  0  0  0
    6.4220    3.4982   -1.6667 C   0  0  0  0  0  0  0  0  0  0  0  0
   -1.1306   -2.9543    0.1398 N   0  0  0  0  0  0  0  0  0  0  0  0
   -2.2275   -3.7185    0.1796 C   0  0  0  0  0  0  0  0  0  0  0  0
   -2.1828   -5.0511    0.1750 N   0  0  0  0  0  0  0  0  0  0  0  0
   -3.2968   -5.7982    0.2144 C   0  0  0  0  0  0  0  0  0  0  0  0
   -4.5513   -5.2412    0.2621 C   0  0  0  0  0  0  0  0  0  0  0  0
   -4.6021   -3.8288    0.2672 C   0  0  0  0  0  0  0  0  0  0  0  0
   -3.4648   -3.0616    0.2269 C   0  0  0  0  0  0  0  0  0  0  0  0
   -9.0841    0.5473   -0.5481 H   0  0  0  0  0  0  0  0  0  0  0  0
   -9.4167   -0.6911    0.7660 H   0  0  0  0  0  0  0  0  0  0  0  0
   -8.9271    0.9516    1.2543 H   0  0  0  0  0  0  0  0  0  0  0  0
   -7.7464    2.3742    0.4040 H   0  0  0  0  0  0  0  0  0  0  0  0
   -6.0806    4.1022    0.3196 H   0  0  0  0  0  0  0  0  0  0  0  0
   -3.7725    4.6905    0.7239 H   0  0  0  0  0  0  0  0  0  0  0  0
   -3.2702    4.0991   -0.8781 H   0  0  0  0  0  0  0  0  0  0  0  0
   -2.4239    3.4830    0.6525 H   0  0  0  0  0  0  0  0  0  0  0  0
   -3.0484    1.1599    0.1939 H   0  0  0  0  0  0  0  0  0  0  0  0
   -5.6274   -1.6372    0.3184 H   0  0  0  0  0  0  0  0  0  0  0  0
   -0.0991    0.2472    0.1423 H   0  0  0  0  0  0  0  0  0  0  0  0
    1.1018   -3.2625   -0.6825 H   0  0  0  0  0  0  0  0  0  0  0  0
    3.4405   -3.8094   -0.6456 H   0  0  0  0  0  0  0  0  0  0  0  0
    5.1785   -2.2310    0.0672 H   0  0  0  0  0  0  0  0  0  0  0  0
    2.1054    0.6295    0.7809 H   0  0  0  0  0  0  0  0  0  0  0  0
    6.4213   -0.6992    0.0569 H   0  0  0  0  0  0  0  0  0  0  0  0
    8.1542    0.6684    0.7305 H   0  0  0  0  0  0  0  0  0  0  0  0
    7.1637    1.1286    2.1125 H   0  0  0  0  0  0  0  0  0  0  0  0
    7.7145    3.1417    0.6116 H   0  0  0  0  0  0  0  0  0  0  0  0
    5.9485    2.8119    0.6859 H   0  0  0  0  0  0  0  0  0  0  0  0
    8.1291    0.8801   -2.0361 H   0  0  0  0  0  0  0  0  0  0  0  0
    8.9715    1.9187   -0.8163 H   0  0  0  0  0  0  0  0  0  0  0  0
    8.4208    2.6031   -2.4456 H   0  0  0  0  0  0  0  0  0  0  0  0
    5.4431    3.7534   -1.2143 H   0  0  0  0  0  0  0  0  0  0  0  0
    6.2753    3.3816   -2.7430 H   0  0  0  0  0  0  0  0  0  0  0  0
    7.1628    4.2745   -1.3807 H   0  0  0  0  0  0  0  0  0  0  0  0
   -3.1892   -6.8816    0.2080 H   0  0  0  0  0  0  0  0  0  0  0  0
   -5.4617   -5.8144    0.2945 H   0  0  0  0  0  0  0  0  0  0  0  0
   -5.5824   -3.3892    0.3041 H   0  0  0  0  0  0  0  0  0  0  0  0
  1  2  1  0
  2  3  1  0
  3  4  2  0
  4  5  1  0
  5  6  2  0
  6  7  1  0
  6  8  1  0
  8  9  2  0
  9 10  1  0
 10 11  1  0
 11 12  2  0
 12 13  1  0
 13 14  1  0
 14 15  1  0
 15 16  2  0
 16 17  1  0
 17 18  2  0
 18 19  1  0
 19 20  2  0
 19 21  1  0
 21 22  2  0
 21 23  1  0
 23 24  1  0
 24 25  1  0
 25 26  1  0
 26 27  1  0
 26 28  1  0
 13 29  2  0
 29 30  1  0
 30 31  2  0
 31 32  1  0
 32 33  2  0
 33 34  1  0
 34 35  2  0
  9  3  1  0
 35 11  1  0
 20 15  1  0
 35 30  1  0
  1 36  1  0
  1 37  1  0
  1 38  1  0
  4 39  1  0
  5 40  1  0
  7 41  1  0
  7 42  1  0
  7 43  1  0
  8 44  1  0
 10 45  1  0
 14 46  1  0
 16 47  1  0
 17 48  1  0
 18 49  1  0
 20 50  1  0
 23 51  1  0
 24 52  1  0
 24 53  1  0
 25 54  1  0
 25 55  1  0
 27 56  1  0
 27 57  1  0
 27 58  1  0
 28 59  1  0
 28 60  1  0
 28 61  1  0
 32 62  1  0
 33 63  1  0
 34 64  1  0
M  END
$$$$
[H]OC(c1c([H])c(C(F)(F)F)c([H])c(S(=O)(=O)N(C([H])([H])[H])C([H])([H])[H])c1[H])(C(F)(F)F)C(F)(F)F
     RDKit          3D

 36 36  0  0  0  0  0  0  0  0999 V2000
    3.0492   -1.1849    1.3314 C   0  0  0  0  0  0  0  0  0  0  0  0
    3.4918   -0.3830    0.1959 N   0  0  0  0  0  0  0  0  0  0  0  0
    4.6700   -1.0943   -0.3303 C   0  0  0  0  0  0  0  0  0  0  0  0
    2.3259   -0.3105   -1.0661 S   0  0  0  0  0  0  0  0  0  0  0  0
    2.0886   -1.7078   -1.5511 O   0  0  0  0  0  0  0  0  0  0  0  0
    3.0205    0.4688   -2.1941 O   0  0  0  0  0  0  0  0  0  0  0  0
    0.8178    0.3871   -0.6129 C   0  0  0  0  0  0  0  0  0  0  0  0
    0.6143    1.7386   -0.5737 C   0  0  0  0  0  0  0  0  0  0  0  0
   -0.6154    2.2824   -0.2409 C   0  0  0  0  0  0  0  0  0  0  0  0
   -1.6766    1.4460    0.0655 C   0  0  0  0  0  0  0  0  0  0  0  0
   -1.5109    0.0944    0.0367 C   0  0  0  0  0  0  0  0  0  0  0  0
   -0.2645   -0.4456   -0.3030 C   0  0  0  0  0  0  0  0  0  0  0  0
   -2.6009   -0.8469    0.3421 C   0  0  0  0  0  0  0  0  0  0  0  0
   -2.1874   -1.5364    1.5220 O   0  0  0  0  0  0  0  0  0  0  0  0
   -3.8923   -0.1845    0.6769 C   0  0  0  0  0  0  0  0  0  0  0  0
   -4.8247   -1.1894    0.9598 F   0  0  0  0  0  0  0  0  0  0  0  0
   -4.3919    0.4648   -0.4208 F   0  0  0  0  0  0  0  0  0  0  0  0
   -3.8511    0.5580    1.8348 F   0  0  0  0  0  0  0  0  0  0  0  0
   -2.8353   -1.8981   -0.6779 C   0  0  0  0  0  0  0  0  0  0  0  0
   -3.8852   -2.7708   -0.3398 F   0  0  0  0  0  0  0  0  0  0  0  0
   -1.7604   -2.7997   -0.7986 F   0  0  0  0  0  0  0  0  0  0  0  0
   -3.1198   -1.3817   -1.9190 F   0  0  0  0  0  0  0  0  0  0  0  0
   -0.8251    3.7506   -0.1801 C   0  0  0  0  0  0  0  0  0  0  0  0
   -2.0269    4.0116    0.5038 F   0  0  0  0  0  0  0  0  0  0  0  0
   -0.9076    4.3253   -1.4313 F   0  0  0  0  0  0  0  0  0  0  0  0
    0.1758    4.3835    0.5361 F   0  0  0  0  0  0  0  0  0  0  0  0
    3.7918   -1.0783    2.1381 H   0  0  0  0  0  0  0  0  0  0  0  0
    2.9891   -2.2739    1.0454 H   0  0  0  0  0  0  0  0  0  0  0  0
    2.0825   -0.8145    1.6460 H   0  0  0  0  0  0  0  0  0  0  0  0
    5.5828   -0.6560    0.0735 H   0  0  0  0  0  0  0  0  0  0  0  0
    4.7401   -1.0057   -1.4388 H   0  0  0  0  0  0  0  0  0  0  0  0
    4.6040   -2.1772   -0.0701 H   0  0  0  0  0  0  0  0  0  0  0  0
    1.4232    2.3959   -0.8045 H   0  0  0  0  0  0  0  0  0  0  0  0
   -2.6333    1.8660    0.3272 H   0  0  0  0  0  0  0  0  0  0  0  0
   -0.0328   -1.4876   -0.3363 H   0  0  0  0  0  0  0  0  0  0  0  0
   -1.6251   -0.9459    2.0539 H   0  0  0  0  0  0  0  0  0  0  0  0
  1  2  1  0
  2  3  1  0
  2  4  1  0
  4  5  2  0
  4  6  2  0
  4  7  1  0
  7  8  2  0
  8  9  1  0
  9 10  2  0
 10 11  1  0
 11 12  2  0
 11 13  1  0
 13 14  1  0
 13 15  1  0
 15 16  1  0
 15 17  1  0
 15 18  1  0
 13 19  1  0
 19 20  1  0
 19 21  1  0
 19 22  1  0
  9 23  1  0
 23 24  1  0
 23 25  1  0
 23 26  1  0
 12  7  1  0
  1 27  1  0
  1 28  1  0
  1 29  1  0
  3 30  1  0
  3 31  1  0
  3 32  1  0
  8 33  1  0
 10 34  1  0
 12 35  1  0
 14 36  1  0
M  END
$$$$
[H]OC(=O)[C@@]([H])(N([H])C(=O)[C@]([H])(N([H])C(=O)N([H])[C@]([H])(C(=O)N([H])[C@]([H])(C(=O)N([H])[H])C([H])([H])c1nc([H])n([H])c1[H])C([H])([H])c1nc([H])n([C@@]([H])(O[H])C([H])([H])O[H])c1[H])C([H])([H])c1c([H])c([H])c([H])c([H])c1[H])C([H])([H])C([H])([H])C([H])([H])C([H])([H])N([H])[H]
     RDKit          3D

 90 92  0  0  0  0  0  0  0  0999 V2000
    7.7302    2.0068    2.9835 N   0  0  0  0  0  0  0  0  0  0  0  0
    8.2613    0.8665    2.3331 C   0  0  0  0  0  0  0  0  0  0  0  0
    7.5304    0.3256    1.1650 C   0  0  0  0  0  0  0  0  0  0  0  0
    7.3787    1.2663    0.0177 C   0  0  0  0  0  0  0  0  0  0  0  0
    6.5969    2.5035    0.2447 C   0  0  0  0  0  0  0  0  0  0  0  0
    5.1924    2.2073    0.6327 C   0  0  2  0  0  0  0  0  0  0  0  0
    4.4888    1.4423   -0.4007 N   0  0  0  0  0  0  0  0  0  0  0  0
    3.5084    0.5013    0.0365 C   0  0  0  0  0  0  0  0  0  0  0  0
    3.2730    0.3341    1.2625 O   0  0  0  0  0  0  0  0  0  0  0  0
    2.7561   -0.2727   -0.9610 C   0  0  1  0  0  0  0  0  0  0  0  0
    3.5339   -1.2139   -1.8047 C   0  0  0  0  0  0  0  0  0  0  0  0
    4.2530   -2.3051   -1.1901 C   0  0  0  0  0  0  0  0  0  0  0  0
    3.4998   -3.4723   -0.9537 C   0  0  0  0  0  0  0  0  0  0  0  0
    4.0594   -4.5999   -0.3958 C   0  0  0  0  0  0  0  0  0  0  0  0
    5.4010   -4.6361   -0.0388 C   0  0  0  0  0  0  0  0  0  0  0  0
    6.1347   -3.4838   -0.2746 C   0  0  0  0  0  0  0  0  0  0  0  0
    5.5630   -2.3636   -0.8333 C   0  0  0  0  0  0  0  0  0  0  0  0
    1.6243   -0.9661   -0.3260 N   0  0  0  0  0  0  0  0  0  0  0  0
    0.3001   -0.7815   -0.7529 C   0  0  0  0  0  0  0  0  0  0  0  0
    0.1188    0.0088   -1.7370 O   0  0  0  0  0  0  0  0  0  0  0  0
   -0.8206   -1.3957   -0.1829 N   0  0  0  0  0  0  0  0  0  0  0  0
   -2.1498   -1.1228   -0.7647 C   0  0  1  0  0  0  0  0  0  0  0  0
   -2.7477   -2.4823   -0.9759 C   0  0  0  0  0  0  0  0  0  0  0  0
   -4.0883   -2.5316   -1.5342 C   0  0  0  0  0  0  0  0  0  0  0  0
   -5.2567   -2.5604   -0.8167 C   0  0  0  0  0  0  0  0  0  0  0  0
   -6.2693   -2.6055   -1.6786 N   0  0  0  0  0  0  0  0  0  0  0  0
   -5.7564   -2.6051   -2.9143 C   0  0  0  0  0  0  0  0  0  0  0  0
   -4.4178   -2.5599   -2.8271 N   0  0  0  0  0  0  0  0  0  0  0  0
   -7.6851   -2.6435   -1.3193 C   0  0  1  0  0  0  0  0  0  0  0  0
   -8.4271   -3.1167   -2.3769 O   0  0  0  0  0  0  0  0  0  0  0  0
   -7.8337   -3.4588   -0.0765 C   0  0  0  0  0  0  0  0  0  0  0  0
   -7.3978   -4.7590   -0.3795 O   0  0  0  0  0  0  0  0  0  0  0  0
   -2.8856   -0.2481    0.1543 C   0  0  0  0  0  0  0  0  0  0  0  0
   -2.6463   -0.2344    1.3731 O   0  0  0  0  0  0  0  0  0  0  0  0
   -3.8848    0.5999   -0.3741 N   0  0  0  0  0  0  0  0  0  0  0  0
   -4.6863    1.5259    0.4670 C   0  0  1  0  0  0  0  0  0  0  0  0
   -4.0477    2.8785    0.1923 C   0  0  0  0  0  0  0  0  0  0  0  0
   -4.6306    3.9654    0.9619 C   0  0  0  0  0  0  0  0  0  0  0  0
   -4.2633    5.3205    0.7806 C   0  0  0  0  0  0  0  0  0  0  0  0
   -4.9461    6.0584    1.6433 N   0  0  0  0  0  0  0  0  0  0  0  0
   -5.7343    5.2761    2.3755 C   0  0  0  0  0  0  0  0  0  0  0  0
   -5.5218    4.0238    1.9425 N   0  0  0  0  0  0  0  0  0  0  0  0
   -6.0314    1.5083   -0.1199 C   0  0  0  0  0  0  0  0  0  0  0  0
   -7.1487    2.1414    0.4319 N   0  0  0  0  0  0  0  0  0  0  0  0
   -6.2490    0.8777   -1.2165 O   0  0  0  0  0  0  0  0  0  0  0  0
    4.4259    3.4920    0.8713 C   0  0  0  0  0  0  0  0  0  0  0  0
    4.8754    4.4002    1.8148 O   0  0  0  0  0  0  0  0  0  0  0  0
    3.3972    3.7208    0.2177 O   0  0  0  0  0  0  0  0  0  0  0  0
    7.0167    1.7905    3.7193 H   0  0  0  0  0  0  0  0  0  0  0  0
    8.4172    2.7162    3.2805 H   0  0  0  0  0  0  0  0  0  0  0  0
    8.3830    0.0172    3.0698 H   0  0  0  0  0  0  0  0  0  0  0  0
    9.3292    1.0832    2.0222 H   0  0  0  0  0  0  0  0  0  0  0  0
    8.0870   -0.5713    0.7437 H   0  0  0  0  0  0  0  0  0  0  0  0
    6.5058   -0.0656    1.4380 H   0  0  0  0  0  0  0  0  0  0  0  0
    8.3980    1.4809   -0.4187 H   0  0  0  0  0  0  0  0  0  0  0  0
    6.8519    0.7021   -0.8119 H   0  0  0  0  0  0  0  0  0  0  0  0
    6.5342    3.0465   -0.7460 H   0  0  0  0  0  0  0  0  0  0  0  0
    7.0781    3.2572    0.9101 H   0  0  0  0  0  0  0  0  0  0  0  0
    5.1348    1.6617    1.5742 H   0  0  0  0  0  0  0  0  0  0  0  0
    4.6828    1.5658   -1.4162 H   0  0  0  0  0  0  0  0  0  0  0  0
    2.2937    0.4589   -1.6583 H   0  0  0  0  0  0  0  0  0  0  0  0
    2.8046   -1.6376   -2.5575 H   0  0  0  0  0  0  0  0  0  0  0  0
    4.2201   -0.6002   -2.4290 H   0  0  0  0  0  0  0  0  0  0  0  0
    2.4494   -3.5319   -1.1998 H   0  0  0  0  0  0  0  0  0  0  0  0
    3.4992   -5.5153   -0.2036 H   0  0  0  0  0  0  0  0  0  0  0  0
    5.8382   -5.5103    0.3945 H   0  0  0  0  0  0  0  0  0  0  0  0
    7.1894   -3.5113    0.0069 H   0  0  0  0  0  0  0  0  0  0  0  0
    6.1847   -1.5081   -0.9983 H   0  0  0  0  0  0  0  0  0  0  0  0
    1.8374   -1.6010    0.4500 H   0  0  0  0  0  0  0  0  0  0  0  0
   -0.7297   -2.0346    0.6325 H   0  0  0  0  0  0  0  0  0  0  0  0
   -1.9380   -0.5842   -1.7332 H   0  0  0  0  0  0  0  0  0  0  0  0
   -2.0575   -3.0123   -1.6948 H   0  0  0  0  0  0  0  0  0  0  0  0
   -2.6598   -3.0981   -0.0339 H   0  0  0  0  0  0  0  0  0  0  0  0
   -5.2877   -2.5451    0.2826 H   0  0  0  0  0  0  0  0  0  0  0  0
   -6.3063   -2.6352   -3.8560 H   0  0  0  0  0  0  0  0  0  0  0  0
   -8.0376   -1.6048   -1.1127 H   0  0  0  0  0  0  0  0  0  0  0  0
   -9.3422   -2.7590   -2.3091 H   0  0  0  0  0  0  0  0  0  0  0  0
   -7.1833   -3.0800    0.7200 H   0  0  0  0  0  0  0  0  0  0  0  0
   -8.9150   -3.4624    0.2186 H   0  0  0  0  0  0  0  0  0  0  0  0
   -7.2671   -5.2269    0.4678 H   0  0  0  0  0  0  0  0  0  0  0  0
   -4.1010    0.6151   -1.3818 H   0  0  0  0  0  0  0  0  0  0  0  0
   -4.5899    1.3111    1.5179 H   0  0  0  0  0  0  0  0  0  0  0  0
   -2.9269    2.8168    0.3129 H   0  0  0  0  0  0  0  0  0  0  0  0
   -4.1661    3.1431   -0.9001 H   0  0  0  0  0  0  0  0  0  0  0  0
   -3.5522    5.6768    0.0628 H   0  0  0  0  0  0  0  0  0  0  0  0
   -4.9024    7.1123    1.7649 H   0  0  0  0  0  0  0  0  0  0  0  0
   -6.4326    5.5431    3.1763 H   0  0  0  0  0  0  0  0  0  0  0  0
   -7.5434    1.7901    1.3309 H   0  0  0  0  0  0  0  0  0  0  0  0
   -7.5937    2.9516   -0.0314 H   0  0  0  0  0  0  0  0  0  0  0  0
    4.4206    4.5224    2.7197 H   0  0  0  0  0  0  0  0  0  0  0  0
  1  2  1  0
  2  3  1  0
  3  4  1  0
  4  5  1  0
  5  6  1  0
  6  7  1  0
  7  8  1  0
  8  9  2  0
  8 10  1  0
 10 11  1  0
 11 12  1  0
 12 13  2  0
 13 14  1  0
 14 15  2  0
 15 16  1  0
 16 17  2  0
 10 18  1  0
 18 19  1  0
 19 20  2  0
 19 21  1  0
 21 22  1  0
 22 23  1  0
 23 24  1  0
 24 25  2  0
 25 26  1  0
 26 27  1  0
 27 28  2  0
 26 29  1  0
 29 30  1  0
 29 31  1  0
 31 32  1  0
 22 33  1  0
 33 34  2  0
 33 35  1  0
 35 36  1  0
 36 37  1  0
 37 38  1  0
 38 39  2  0
 39 40  1  0
 40 41  1  0
 41 42  2  0
 36 43  1  0
 43 44  1  0
 43 45  2  0
  6 46  1  0
 46 47  1  0
 46 48  2  0
 17 12  1  0
 28 24  1  0
 42 38  1  0
  1 49  1  0
  1 50  1  0
  2 51  1  0
  2 52  1  0
  3 53  1  0
  3 54  1  0
  4 55  1  0
  4 56  1  0
  5 57  1  0
  5 58  1  0
  6 59  1  1
  7 60  1  0
 10 61  1  6
 11 62  1  0
 11 63  1  0
 13 64  1  0
 14 65  1  0
 15 66  1  0
 16 67  1  0
 17 68  1  0
 18 69  1  0
 21 70  1  0
 22 71  1  6
 23 72  1  0
 23 73  1  0
 25 74  1  0
 27 75  1  0
 29 76  1  1
 30 77  1  0
 31 78  1  0
 31 79  1  0
 32 80  1  0
 35 81  1  0
 36 82  1  1
 37 83  1  0
 37 84  1  0
 39 85  1  0
 40 86  1  0
 41 87  1  0
 44 88  1  0
 44 89  1  0
 47 90  1  0
M  END
$$$$
[H]OB(O[H])[C@@]([H])(N([H])C(=O)[C@@]([H])(N([H])C(=O)OC([H])([H])c1c([H])c([H])c([H])c([H])c1[H])C([H])(c1c([H])c([H])c([H])c([H])c1[H])c1c([H])c([H])c([H])c([H])c1[H])C([H])([H])C([H])(C([H])([H])[H])C([H])([H])[H]
     RDKit          3D

 69 71  0  0  0  0  0  0  0  0999 V2000
   -5.5693   -1.4398    1.2080 C   0  0  0  0  0  0  0  0  0  0  0  0
   -5.4689   -1.3808   -0.2927 C   0  0  0  0  0  0  0  0  0  0  0  0
   -6.6796   -0.7936   -0.9202 C   0  0  0  0  0  0  0  0  0  0  0  0
   -4.2335   -0.6413   -0.7729 C   0  0  0  0  0  0  0  0  0  0  0  0
   -3.0068   -1.3601   -0.3112 C   0  0  2  0  0  0  0  0  0  0  0  0
   -1.7995   -0.6683   -0.7463 N   0  0  0  0  0  0  0  0  0  0  0  0
   -0.6366   -0.7122   -0.0039 C   0  0  0  0  0  0  0  0  0  0  0  0
   -0.7338   -1.4323    1.0895 O   0  0  0  0  0  0  0  0  0  0  0  0
    0.6992   -0.1415   -0.1509 C   0  0  1  0  0  0  0  0  0  0  0  0
    1.7247   -1.1407    0.1764 N   0  0  0  0  0  0  0  0  0  0  0  0
    2.3966   -1.2610    1.4015 C   0  0  0  0  0  0  0  0  0  0  0  0
    2.0963   -0.4190    2.3236 O   0  0  0  0  0  0  0  0  0  0  0  0
    3.3401   -2.1843    1.7228 O   0  0  0  0  0  0  0  0  0  0  0  0
    4.0310   -2.3367    2.9210 C   0  0  0  0  0  0  0  0  0  0  0  0
    4.8740   -1.2109    3.3197 C   0  0  0  0  0  0  0  0  0  0  0  0
    6.0082   -0.8289    2.6295 C   0  0  0  0  0  0  0  0  0  0  0  0
    6.7864    0.2205    3.0661 C   0  0  0  0  0  0  0  0  0  0  0  0
    6.4611    0.9288    4.2076 C   0  0  0  0  0  0  0  0  0  0  0  0
    5.3224    0.5534    4.9081 C   0  0  0  0  0  0  0  0  0  0  0  0
    4.5456   -0.4962    4.4707 C   0  0  0  0  0  0  0  0  0  0  0  0
    1.0505    0.9191   -1.0447 C   0  0  0  0  0  0  0  0  0  0  0  0
    0.3034    2.1744   -0.6948 C   0  0  0  0  0  0  0  0  0  0  0  0
   -0.8239    2.5970   -1.3429 C   0  0  0  0  0  0  0  0  0  0  0  0
   -1.4650    3.7658   -0.9826 C   0  0  0  0  0  0  0  0  0  0  0  0
   -1.0087    4.5485    0.0281 C   0  0  0  0  0  0  0  0  0  0  0  0
    0.1317    4.1636    0.7165 C   0  0  0  0  0  0  0  0  0  0  0  0
    0.7627    2.9893    0.3441 C   0  0  0  0  0  0  0  0  0  0  0  0
    1.1203    0.8477   -2.4699 C   0  0  0  0  0  0  0  0  0  0  0  0
    0.7916   -0.2422   -3.2108 C   0  0  0  0  0  0  0  0  0  0  0  0
    0.8594   -0.2601   -4.6008 C   0  0  0  0  0  0  0  0  0  0  0  0
    1.2879    0.9063   -5.2504 C   0  0  0  0  0  0  0  0  0  0  0  0
    1.6272    2.0249   -4.5204 C   0  0  0  0  0  0  0  0  0  0  0  0
    1.5387    1.9776   -3.1550 C   0  0  0  0  0  0  0  0  0  0  0  0
   -2.9994   -2.8594   -0.8881 B   0  0  0  0  0  0  0  0  0  0  0  0
   -2.5251   -3.9450   -0.0568 O   0  0  0  0  0  0  0  0  0  0  0  0
   -3.2703   -3.1160   -2.2980 O   0  0  0  0  0  0  0  0  0  0  0  0
   -6.6076   -1.5802    1.5379 H   0  0  0  0  0  0  0  0  0  0  0  0
   -5.1364   -0.5157    1.6527 H   0  0  0  0  0  0  0  0  0  0  0  0
   -4.9625   -2.2872    1.6228 H   0  0  0  0  0  0  0  0  0  0  0  0
   -5.3585   -2.4881   -0.5897 H   0  0  0  0  0  0  0  0  0  0  0  0
   -6.7269   -0.9900   -2.0271 H   0  0  0  0  0  0  0  0  0  0  0  0
   -6.7075    0.2990   -0.8183 H   0  0  0  0  0  0  0  0  0  0  0  0
   -7.5914   -1.2484   -0.4670 H   0  0  0  0  0  0  0  0  0  0  0  0
   -4.2681    0.3473   -0.2473 H   0  0  0  0  0  0  0  0  0  0  0  0
   -4.2163   -0.4919   -1.8530 H   0  0  0  0  0  0  0  0  0  0  0  0
   -2.9843   -1.4645    0.7706 H   0  0  0  0  0  0  0  0  0  0  0  0
   -1.9326   -0.1771   -1.6667 H   0  0  0  0  0  0  0  0  0  0  0  0
    0.7351    0.4624    0.8898 H   0  0  0  0  0  0  0  0  0  0  0  0
    1.9576   -1.8061   -0.5795 H   0  0  0  0  0  0  0  0  0  0  0  0
    3.3193   -2.6262    3.7643 H   0  0  0  0  0  0  0  0  0  0  0  0
    4.6859   -3.2314    2.8396 H   0  0  0  0  0  0  0  0  0  0  0  0
    6.2845   -1.3768    1.7164 H   0  0  0  0  0  0  0  0  0  0  0  0
    7.6649    0.4887    2.5059 H   0  0  0  0  0  0  0  0  0  0  0  0
    7.0892    1.7428    4.5248 H   0  0  0  0  0  0  0  0  0  0  0  0
    5.0969    1.1329    5.7986 H   0  0  0  0  0  0  0  0  0  0  0  0
    3.6717   -0.7482    5.0502 H   0  0  0  0  0  0  0  0  0  0  0  0
    2.1362    1.2188   -0.7441 H   0  0  0  0  0  0  0  0  0  0  0  0
   -1.2497    2.0322   -2.1688 H   0  0  0  0  0  0  0  0  0  0  0  0
   -2.3686    4.1032   -1.5027 H   0  0  0  0  0  0  0  0  0  0  0  0
   -1.5079    5.4682    0.3137 H   0  0  0  0  0  0  0  0  0  0  0  0
    0.4738    4.7970    1.5083 H   0  0  0  0  0  0  0  0  0  0  0  0
    1.6480    2.7149    0.8970 H   0  0  0  0  0  0  0  0  0  0  0  0
    0.4750   -1.1123   -2.6743 H   0  0  0  0  0  0  0  0  0  0  0  0
    0.5890   -1.1558   -5.1343 H   0  0  0  0  0  0  0  0  0  0  0  0
    1.3289    0.8589   -6.3355 H   0  0  0  0  0  0  0  0  0  0  0  0
    1.9548    2.9141   -5.0675 H   0  0  0  0  0  0  0  0  0  0  0  0
    1.8136    2.8804   -2.6073 H   0  0  0  0  0  0  0  0  0  0  0  0
   -3.1223   -3.9566    0.7638 H   0  0  0  0  0  0  0  0  0  0  0  0
   -3.7223   -3.9511   -2.4928 H   0  0  0  0  0  0  0  0  0  0  0  0
  1  2  1  0
  2  3  1  0
  2  4  1  0
  4  5  1  0
  5  6  1  0
  6  7  1  0
  7  8  2  0
  7  9  1  0
  9 10  1  0
 10 11  1  0
 11 12  2  0
 11 13  1  0
 13 14  1  0
 14 15  1  0
 15 16  2  0
 16 17  1  0
 17 18  2  0
 18 19  1  0
 19 20  2  0
  9 21  1  0
 21 22  1  0
 22 23  2  0
 23 24  1  0
 24 25  2  0
 25 26  1  0
 26 27  2  0
 21 28  1  0
 28 29  2  0
 29 30  1  0
 30 31  2  0
 31 32  1  0
 32 33  2  0
  5 34  1  0
 34 35  1  0
 34 36  1  0
 20 15  1  0
 27 22  1  0
 33 28  1  0
  1 37  1  0
  1 38  1  0
  1 39  1  0
  2 40  1  0
  3 41  1  0
  3 42  1  0
  3 43  1  0
  4 44  1  0
  4 45  1  0
  5 46  1  1
  6 47  1  0
  9 48  1  1
 10 49  1  0
 14 50  1  0
 14 51  1  0
 16 52  1  0
 17 53  1  0
 18 54  1  0
 19 55  1  0
 20 56  1  0
 21 57  1  0
 23 58  1  0
 24 59  1  0
 25 60  1  0
 26 61  1  0
 27 62  1  0
 29 63  1  0
 30 64  1  0
 31 65  1  0
 32 66  1  0
 33 67  1  0
 35 68  1  0
 36 69  1  0
M  END
$$$$
[H]c1sc(N2C([H])([H])C([H])([H])C([H])(C(=O)N([H])c3c([H])c([H])c4c([H])c([H])c(OC([H])([H])[H])c(C([H])([H])N(C([H])([H])[H])C([H])([H])[H])c4c3[H])C([H])([H])C2([H])[H])c([H])c1[H]
     RDKit          3D

 59 62  0  0  0  0  0  0  0  0999 V2000
   -7.9579   -0.9545   -0.9574 C   0  0  0  0  0  0  0  0  0  0  0  0
   -6.7232   -0.3114   -0.7971 O   0  0  0  0  0  0  0  0  0  0  0  0
   -5.5717   -1.0692   -0.5780 C   0  0  0  0  0  0  0  0  0  0  0  0
   -4.3306   -0.3705   -0.4172 C   0  0  0  0  0  0  0  0  0  0  0  0
   -4.4304    1.0693   -0.5159 C   0  0  0  0  0  0  0  0  0  0  0  0
   -3.4361    1.9884   -0.2184 N   0  0  0  0  0  0  0  0  0  0  0  0
   -3.3116    2.2703    1.2277 C   0  0  0  0  0  0  0  0  0  0  0  0
   -3.4864    3.2406   -0.8944 C   0  0  0  0  0  0  0  0  0  0  0  0
   -3.2368   -1.1540   -0.2126 C   0  0  0  0  0  0  0  0  0  0  0  0
   -3.3127   -2.5672   -0.1529 C   0  0  0  0  0  0  0  0  0  0  0  0
   -2.1904   -3.3453    0.0165 C   0  0  0  0  0  0  0  0  0  0  0  0
   -0.9665   -2.7453    0.1252 C   0  0  0  0  0  0  0  0  0  0  0  0
   -0.8244   -1.3968    0.0696 C   0  0  0  0  0  0  0  0  0  0  0  0
    0.4039   -0.6911    0.1974 N   0  0  0  0  0  0  0  0  0  0  0  0
    1.5990   -1.1317    0.7679 C   0  0  0  0  0  0  0  0  0  0  0  0
    1.6990   -2.2699    1.2630 O   0  0  0  0  0  0  0  0  0  0  0  0
    2.8216   -0.2851    0.8224 C   0  0  0  0  0  0  0  0  0  0  0  0
    3.9326   -0.9845    1.5288 C   0  0  0  0  0  0  0  0  0  0  0  0
    5.2620   -0.3535    1.4127 C   0  0  0  0  0  0  0  0  0  0  0  0
    5.4088    0.5711    0.3337 N   0  0  0  0  0  0  0  0  0  0  0  0
    6.7511    0.9148   -0.0690 C   0  0  0  0  0  0  0  0  0  0  0  0
    7.7302    0.1900   -1.2716 S   0  0  0  0  0  0  0  0  0  0  0  0
    9.1225    1.1589   -1.1079 C   0  0  0  0  0  0  0  0  0  0  0  0
    8.7819    2.0277   -0.1115 C   0  0  0  0  0  0  0  0  0  0  0  0
    7.5564    1.9005    0.4243 C   0  0  0  0  0  0  0  0  0  0  0  0
    4.3322    1.1821   -0.3859 C   0  0  0  0  0  0  0  0  0  0  0  0
    3.2927    0.0662   -0.5844 C   0  0  0  0  0  0  0  0  0  0  0  0
   -1.9792   -0.6085   -0.1030 C   0  0  0  0  0  0  0  0  0  0  0  0
   -4.5413   -3.1759   -0.3118 C   0  0  0  0  0  0  0  0  0  0  0  0
   -5.6425   -2.4192   -0.5219 C   0  0  0  0  0  0  0  0  0  0  0  0
   -8.7395   -0.1520   -1.0787 H   0  0  0  0  0  0  0  0  0  0  0  0
   -7.9414   -1.6419   -1.8306 H   0  0  0  0  0  0  0  0  0  0  0  0
   -8.1838   -1.5713   -0.0466 H   0  0  0  0  0  0  0  0  0  0  0  0
   -4.9449    1.3425   -1.5287 H   0  0  0  0  0  0  0  0  0  0  0  0
   -5.3436    1.3394    0.1761 H   0  0  0  0  0  0  0  0  0  0  0  0
   -3.9020    3.1529    1.5199 H   0  0  0  0  0  0  0  0  0  0  0  0
   -2.2424    2.5138    1.3822 H   0  0  0  0  0  0  0  0  0  0  0  0
   -3.5190    1.3636    1.8202 H   0  0  0  0  0  0  0  0  0  0  0  0
   -2.6521    3.8813   -0.4806 H   0  0  0  0  0  0  0  0  0  0  0  0
   -3.2830    3.1456   -1.9841 H   0  0  0  0  0  0  0  0  0  0  0  0
   -4.4155    3.8070   -0.6774 H   0  0  0  0  0  0  0  0  0  0  0  0
   -2.2779   -4.4243    0.0627 H   0  0  0  0  0  0  0  0  0  0  0  0
   -0.0582   -3.3658    0.2502 H   0  0  0  0  0  0  0  0  0  0  0  0
    0.4361    0.3075   -0.1942 H   0  0  0  0  0  0  0  0  0  0  0  0
    2.5753    0.6432    1.3570 H   0  0  0  0  0  0  0  0  0  0  0  0
    3.9387   -2.0749    1.2294 H   0  0  0  0  0  0  0  0  0  0  0  0
    3.6554   -0.9839    2.6263 H   0  0  0  0  0  0  0  0  0  0  0  0
    5.5498    0.2098    2.3503 H   0  0  0  0  0  0  0  0  0  0  0  0
    6.0450   -1.1338    1.3153 H   0  0  0  0  0  0  0  0  0  0  0  0
   10.0842    1.1264   -1.6522 H   0  0  0  0  0  0  0  0  0  0  0  0
    9.5098    2.8013    0.2242 H   0  0  0  0  0  0  0  0  0  0  0  0
    7.1721    2.5522    1.2409 H   0  0  0  0  0  0  0  0  0  0  0  0
    3.7862    1.9460    0.2260 H   0  0  0  0  0  0  0  0  0  0  0  0
    4.6606    1.6081   -1.3448 H   0  0  0  0  0  0  0  0  0  0  0  0
    3.8642   -0.7624   -1.0485 H   0  0  0  0  0  0  0  0  0  0  0  0
    2.4846    0.3945   -1.2408 H   0  0  0  0  0  0  0  0  0  0  0  0
   -1.8555    0.4367   -0.2075 H   0  0  0  0  0  0  0  0  0  0  0  0
   -4.5505   -4.2621   -0.2567 H   0  0  0  0  0  0  0  0  0  0  0  0
   -6.6048   -2.9457   -0.6457 H   0  0  0  0  0  0  0  0  0  0  0  0
  1  2  1  0
  2  3  1  0
  3  4  2  0
  4  5  1  0
  5  6  1  0
  6  7  1  0
  6  8  1  0
  4  9  1  0
  9 10  2  0
 10 11  1  0
 11 12  2  0
 12 13  1  0
 13 14  1  0
 14 15  1  0
 15 16  2  0
 15 17  1  0
 17 18  1  0
 18 19  1  0
 19 20  1  0
 20 21  1  0
 21 22  1  0
 22 23  1  0
 23 24  2  0
 24 25  1  0
 20 26  1  0
 26 27  1  0
 13 28  2  0
 10 29  1  0
 29 30  2  0
 30  3  1  0
 28  9  1  0
 27 17  1  0
 25 21  2  0
  1 31  1  0
  1 32  1  0
  1 33  1  0
  5 34  1  0
  5 35  1  0
  7 36  1  0
  7 37  1  0
  7 38  1  0
  8 39  1  0
  8 40  1  0
  8 41  1  0
 11 42  1  0
 12 43  1  0
 14 44  1  0
 17 45  1  0
 18 46  1  0
 18 47  1  0
 19 48  1  0
 19 49  1  0
 23 50  1  0
 24 51  1  0
 25 52  1  0
 26 53  1  0
 26 54  1  0
 27 55  1  0
 27 56  1  0
 28 57  1  0
 29 58  1  0
 30 59  1  0
M  END
$$$$
[H]Oc1c([H])c(OC([H])([H])C([H])([H])[H])c([H])c2c([H])nc(N([H])c3c([H])c([H])c(N([H])C(=O)N(C([H])([H])[H])C([H])([H])[H])c([H])c3[H])nc(=O)c12
     RDKit          3D

 50 52  0  0  0  0  0  0  0  0999 V2000
    6.3140    2.0157   -1.4606 C   0  0  0  0  0  0  0  0  0  0  0  0
    6.9964    1.6562   -0.1764 C   0  0  0  0  0  0  0  0  0  0  0  0
    6.9986    0.2882    0.0344 O   0  0  0  0  0  0  0  0  0  0  0  0
    5.9207   -0.5499    0.1703 C   0  0  0  0  0  0  0  0  0  0  0  0
    6.1487   -1.9163    0.3713 C   0  0  0  0  0  0  0  0  0  0  0  0
    5.1089   -2.8082    0.5154 C   0  0  0  0  0  0  0  0  0  0  0  0
    5.3179   -4.1696    0.7159 O   0  0  0  0  0  0  0  0  0  0  0  0
    3.8151   -2.3383    0.4595 C   0  0  0  0  0  0  0  0  0  0  0  0
    3.5495   -1.0212    0.2663 C   0  0  0  0  0  0  0  0  0  0  0  0
    4.6204   -0.1316    0.1223 C   0  0  0  0  0  0  0  0  0  0  0  0
    2.3440   -0.3434    0.1785 C   0  0  0  0  0  0  0  0  0  0  0  0
    1.1468   -0.9439    0.2692 N   0  0  0  0  0  0  0  0  0  0  0  0
    0.7369   -2.1928    0.2876 C   0  0  0  0  0  0  0  0  0  0  0  0
   -0.6153   -2.4835    0.1879 N   0  0  0  0  0  0  0  0  0  0  0  0
   -1.7170   -1.5956    0.0745 C   0  0  0  0  0  0  0  0  0  0  0  0
   -2.9210   -2.1041   -0.4346 C   0  0  0  0  0  0  0  0  0  0  0  0
   -4.0348   -1.3139   -0.5536 C   0  0  0  0  0  0  0  0  0  0  0  0
   -4.0473    0.0341   -0.1813 C   0  0  0  0  0  0  0  0  0  0  0  0
   -5.2454    0.7677   -0.3501 N   0  0  0  0  0  0  0  0  0  0  0  0
   -5.5431    2.0683    0.0372 C   0  0  0  0  0  0  0  0  0  0  0  0
   -4.7214    2.7956    0.6275 O   0  0  0  0  0  0  0  0  0  0  0  0
   -6.8169    2.6238   -0.2312 N   0  0  0  0  0  0  0  0  0  0  0  0
   -7.8063    1.8254   -0.9116 C   0  0  0  0  0  0  0  0  0  0  0  0
   -7.1510    3.9690    0.1584 C   0  0  0  0  0  0  0  0  0  0  0  0
   -2.8776    0.5302    0.3140 C   0  0  0  0  0  0  0  0  0  0  0  0
   -1.7305   -0.2826    0.4375 C   0  0  0  0  0  0  0  0  0  0  0  0
    1.5488   -3.2826    0.4009 N   0  0  0  0  0  0  0  0  0  0  0  0
    2.8920   -3.3468    0.6199 C   0  0  0  0  0  0  0  0  0  0  0  0
    3.3123   -4.4619    1.0118 O   0  0  0  0  0  0  0  0  0  0  0  0
    5.8589    1.1125   -1.9246 H   0  0  0  0  0  0  0  0  0  0  0  0
    5.5185    2.7602   -1.3197 H   0  0  0  0  0  0  0  0  0  0  0  0
    7.0189    2.4487   -2.2089 H   0  0  0  0  0  0  0  0  0  0  0  0
    6.3849    2.1173    0.6552 H   0  0  0  0  0  0  0  0  0  0  0  0
    7.9943    2.1246   -0.0695 H   0  0  0  0  0  0  0  0  0  0  0  0
    7.1683   -2.3008    0.4175 H   0  0  0  0  0  0  0  0  0  0  0  0
    6.2821   -4.5136    0.7566 H   0  0  0  0  0  0  0  0  0  0  0  0
    4.4004    0.9286   -0.0277 H   0  0  0  0  0  0  0  0  0  0  0  0
    2.3947    0.7246    0.0291 H   0  0  0  0  0  0  0  0  0  0  0  0
   -0.8498   -3.5450    0.2057 H   0  0  0  0  0  0  0  0  0  0  0  0
   -2.9266   -3.1580   -0.7316 H   0  0  0  0  0  0  0  0  0  0  0  0
   -4.9544   -1.7314   -0.9497 H   0  0  0  0  0  0  0  0  0  0  0  0
   -6.0560    0.2578   -0.8539 H   0  0  0  0  0  0  0  0  0  0  0  0
   -8.0460    0.9630   -0.2467 H   0  0  0  0  0  0  0  0  0  0  0  0
   -8.7543    2.3683   -1.0646 H   0  0  0  0  0  0  0  0  0  0  0  0
   -7.4787    1.4641   -1.9023 H   0  0  0  0  0  0  0  0  0  0  0  0
   -6.2598    4.6243    0.2409 H   0  0  0  0  0  0  0  0  0  0  0  0
   -7.8100    4.3950   -0.6400 H   0  0  0  0  0  0  0  0  0  0  0  0
   -7.7449    3.9204    1.0718 H   0  0  0  0  0  0  0  0  0  0  0  0
   -2.8153    1.5593    0.6155 H   0  0  0  0  0  0  0  0  0  0  0  0
   -0.8687    0.1922    0.8498 H   0  0  0  0  0  0  0  0  0  0  0  0
  1  2  1  0
  2  3  1  0
  3  4  1  0
  4  5  2  0
  5  6  1  0
  6  7  1  0
  6  8  2  0
  8  9  1  0
  9 10  2  0
  9 11  1  0
 11 12  2  0
 12 13  1  0
 13 14  1  0
 14 15  1  0
 15 16  2  0
 16 17  1  0
 17 18  2  0
 18 19  1  0
 19 20  1  0
 20 21  2  0
 20 22  1  0
 22 23  1  0
 22 24  1  0
 18 25  1  0
 25 26  2  0
 13 27  2  0
 27 28  1  0
 28 29  2  0
 10  4  1  0
 26 15  1  0
 28  8  1  0
  1 30  1  0
  1 31  1  0
  1 32  1  0
  2 33  1  0
  2 34  1  0
  5 35  1  0
  7 36  1  0
 10 37  1  0
 11 38  1  0
 14 39  1  0
 16 40  1  0
 17 41  1  0
 19 42  1  0
 23 43  1  0
 23 44  1  0
 23 45  1  0
 24 46  1  0
 24 47  1  0
 24 48  1  0
 25 49  1  0
 26 50  1  0
M  END
$$$$
[H]Cl.[H]c1nn(C([H])([H])[H])c([H])c1Sc1nc(N([H])C2([H])C([H])([H])C([H])([H])C([H])([H])C([H])([H])C2([H])[H])nc2nc(N([H])[H])nc(-c3c([H])c([H])c(C#N)c([H])c3[H])c12
     RDKit          3D

 58 61  0  0  0  0  0  0  0  0999 V2000
    0.6866    0.0000    0.0000 Cl  0  0  0  0  0  0  0  0  0  0  0  0
   -3.9077    4.4371   -0.3138 C   0  0  0  0  0  0  0  0  0  0  0  0
   -3.5617    3.3115    0.5551 N   0  0  0  0  0  0  0  0  0  0  0  0
   -2.5557    2.4363    0.4194 C   0  0  0  0  0  0  0  0  0  0  0  0
   -2.5764    1.5385    1.4572 C   0  0  0  0  0  0  0  0  0  0  0  0
   -1.5349    0.1584    1.8212 S   0  0  0  0  0  0  0  0  0  0  0  0
   -0.3603   -0.2600    0.6170 C   0  0  0  0  0  0  0  0  0  0  0  0
    0.7845    0.4677    0.6025 N   0  0  0  0  0  0  0  0  0  0  0  0
    1.7710    0.2558   -0.3065 C   0  0  0  0  0  0  0  0  0  0  0  0
    2.9276    1.0749   -0.3236 N   0  0  0  0  0  0  0  0  0  0  0  0
    3.9793    0.8167   -1.2644 C   0  0  0  0  0  0  0  0  0  0  0  0
    4.6423   -0.4784   -0.8410 C   0  0  0  0  0  0  0  0  0  0  0  0
    5.9139   -0.2035   -0.1061 C   0  0  0  0  0  0  0  0  0  0  0  0
    5.7452    0.9594    0.8165 C   0  0  0  0  0  0  0  0  0  0  0  0
    5.6069    2.2252    0.0063 C   0  0  0  0  0  0  0  0  0  0  0  0
    4.9585    1.9581   -1.3388 C   0  0  0  0  0  0  0  0  0  0  0  0
    1.6121   -0.7055   -1.2221 N   0  0  0  0  0  0  0  0  0  0  0  0
    0.5186   -1.4579   -1.2674 C   0  0  0  0  0  0  0  0  0  0  0  0
    0.3952   -2.4033   -2.2223 N   0  0  0  0  0  0  0  0  0  0  0  0
   -0.7128   -3.1552   -2.2808 C   0  0  0  0  0  0  0  0  0  0  0  0
   -0.7999   -4.1331   -3.3059 N   0  0  0  0  0  0  0  0  0  0  0  0
   -1.6793   -2.9615   -1.3936 N   0  0  0  0  0  0  0  0  0  0  0  0
   -1.6139   -1.9999   -0.3803 C   0  0  0  0  0  0  0  0  0  0  0  0
   -0.5022   -1.2419   -0.3276 C   0  0  0  0  0  0  0  0  0  0  0  0
   -2.7691   -1.9918    0.4722 C   0  0  0  0  0  0  0  0  0  0  0  0
   -3.9596   -1.5709   -0.0486 C   0  0  0  0  0  0  0  0  0  0  0  0
   -5.1604   -1.6857    0.6179 C   0  0  0  0  0  0  0  0  0  0  0  0
   -5.1145   -2.2650    1.8808 C   0  0  0  0  0  0  0  0  0  0  0  0
   -3.9452   -2.7085    2.4559 C   0  0  0  0  0  0  0  0  0  0  0  0
   -2.7598   -2.5533    1.7077 C   0  0  0  0  0  0  0  0  0  0  0  0
   -6.3885   -2.3668    2.5559 C   0  0  0  0  0  0  0  0  0  0  0  0
   -7.4112   -2.4261    3.1103 N   0  0  0  0  0  0  0  0  0  0  0  0
   -3.6493    1.9093    2.2358 C   0  0  0  0  0  0  0  0  0  0  0  0
   -4.2045    2.9745    1.6527 N   0  0  0  0  0  0  0  0  0  0  0  0
   -0.6866    0.0000    0.0000 H   0  0  0  0  0  0  0  0  0  0  0  0
   -4.4416    4.1490   -1.2221 H   0  0  0  0  0  0  0  0  0  0  0  0
   -2.9768    5.0300   -0.5300 H   0  0  0  0  0  0  0  0  0  0  0  0
   -4.5504    5.1216    0.2606 H   0  0  0  0  0  0  0  0  0  0  0  0
   -1.8199    2.4231   -0.3835 H   0  0  0  0  0  0  0  0  0  0  0  0
    3.0041    1.8655    0.3411 H   0  0  0  0  0  0  0  0  0  0  0  0
    3.6193    0.6535   -2.3055 H   0  0  0  0  0  0  0  0  0  0  0  0
    4.8648   -1.1357   -1.7364 H   0  0  0  0  0  0  0  0  0  0  0  0
    3.9845   -1.1047   -0.2040 H   0  0  0  0  0  0  0  0  0  0  0  0
    6.7034    0.0523   -0.8714 H   0  0  0  0  0  0  0  0  0  0  0  0
    6.2176   -1.1018    0.4932 H   0  0  0  0  0  0  0  0  0  0  0  0
    4.8391    0.8356    1.4173 H   0  0  0  0  0  0  0  0  0  0  0  0
    6.6484    1.0969    1.4671 H   0  0  0  0  0  0  0  0  0  0  0  0
    6.6088    2.6553   -0.2145 H   0  0  0  0  0  0  0  0  0  0  0  0
    5.0647    2.9810    0.6068 H   0  0  0  0  0  0  0  0  0  0  0  0
    5.7091    1.7415   -2.1301 H   0  0  0  0  0  0  0  0  0  0  0  0
    4.3896    2.8690   -1.6138 H   0  0  0  0  0  0  0  0  0  0  0  0
   -0.2049   -4.9758   -3.2954 H   0  0  0  0  0  0  0  0  0  0  0  0
   -1.4787   -3.9811   -4.0750 H   0  0  0  0  0  0  0  0  0  0  0  0
   -3.9672   -1.1245   -1.0341 H   0  0  0  0  0  0  0  0  0  0  0  0
   -6.1053   -1.3417    0.1787 H   0  0  0  0  0  0  0  0  0  0  0  0
   -3.9519   -3.1542    3.4377 H   0  0  0  0  0  0  0  0  0  0  0  0
   -1.8539   -2.9311    2.2040 H   0  0  0  0  0  0  0  0  0  0  0  0
   -3.9913    1.4212    3.1675 H   0  0  0  0  0  0  0  0  0  0  0  0
  2  3  1  0
  3  4  1  0
  4  5  2  0
  5  6  1  0
  6  7  1  0
  7  8  2  0
  8  9  1  0
  9 10  1  0
 10 11  1  0
 11 12  1  0
 12 13  1  0
 13 14  1  0
 14 15  1  0
 15 16  1  0
  9 17  2  0
 17 18  1  0
 18 19  2  0
 19 20  1  0
 20 21  1  0
 20 22  2  0
 22 23  1  0
 23 24  2  0
 23 25  1  0
 25 26  2  0
 26 27  1  0
 27 28  2  0
 28 29  1  0
 29 30  2  0
 28 31  1  0
 31 32  3  0
  5 33  1  0
 33 34  2  0
 34  3  1  0
 24  7  1  0
 30 25  1  0
 16 11  1  0
 24 18  1  0
  1 35  1  0
  2 36  1  0
  2 37  1  0
  2 38  1  0
  4 39  1  0
 10 40  1  0
 11 41  1  0
 12 42  1  0
 12 43  1  0
 13 44  1  0
 13 45  1  0
 14 46  1  0
 14 47  1  0
 15 48  1  0
 15 49  1  0
 16 50  1  0
 16 51  1  0
 21 52  1  0
 21 53  1  0
 26 54  1  0
 27 55  1  0
 29 56  1  0
 30 57  1  0
 33 58  1  0
M  END
$$$$
[H]c1c([H])c2c(c([H])c1-c1c([H])c([H])c3c(c1[H])C(C([H])([H])[H])(C([H])([H])[H])C(=O)N3[H])C(C([H])([H])[H])(C([H])([H])[H])C(=O)N2[H]
     RDKit          3D

 44 47  0  0  0  0  0  0  0  0999 V2000
    0.5801    0.2869    0.5165 C   0  0  0  0  0  0  0  0  0  0  0  0
   -0.6556   -0.4674    0.3168 C   0  0  0  0  0  0  0  0  0  0  0  0
   -1.8201    0.2182    0.0692 C   0  0  0  0  0  0  0  0  0  0  0  0
   -3.0304   -0.4733   -0.1288 C   0  0  0  0  0  0  0  0  0  0  0  0
   -3.0653   -1.8442   -0.0772 C   0  0  0  0  0  0  0  0  0  0  0  0
   -1.8788   -2.5470    0.1753 C   0  0  0  0  0  0  0  0  0  0  0  0
   -0.7064   -1.8431    0.3655 C   0  0  0  0  0  0  0  0  0  0  0  0
   -4.3925   -2.2857   -0.3071 N   0  0  0  0  0  0  0  0  0  0  0  0
   -5.2222   -1.1564   -0.5103 C   0  0  0  0  0  0  0  0  0  0  0  0
   -6.4659   -1.2303   -0.7395 O   0  0  0  0  0  0  0  0  0  0  0  0
   -4.3712    0.0408   -0.4024 C   0  0  0  0  0  0  0  0  0  0  0  0
   -4.9034    0.8511    0.7625 C   0  0  0  0  0  0  0  0  0  0  0  0
   -4.3565    0.8551   -1.6770 C   0  0  0  0  0  0  0  0  0  0  0  0
    1.8148   -0.2365    0.1444 C   0  0  0  0  0  0  0  0  0  0  0  0
    3.0043    0.4226    0.3073 C   0  0  0  0  0  0  0  0  0  0  0  0
    2.9770    1.6799    0.8737 C   0  0  0  0  0  0  0  0  0  0  0  0
    1.7655    2.2390    1.2591 C   0  0  0  0  0  0  0  0  0  0  0  0
    0.5712    1.5528    1.0846 C   0  0  0  0  0  0  0  0  0  0  0  0
    4.2956    2.2025    0.9615 N   0  0  0  0  0  0  0  0  0  0  0  0
    5.2179    1.2591    0.4365 C   0  0  0  0  0  0  0  0  0  0  0  0
    6.4546    1.3244    0.3289 O   0  0  0  0  0  0  0  0  0  0  0  0
    4.4132    0.0915    0.0018 C   0  0  0  0  0  0  0  0  0  0  0  0
    4.8617   -1.1145    0.8263 C   0  0  0  0  0  0  0  0  0  0  0  0
    4.6674   -0.1298   -1.4616 C   0  0  0  0  0  0  0  0  0  0  0  0
   -1.8152    1.2983    0.0245 H   0  0  0  0  0  0  0  0  0  0  0  0
   -1.9313   -3.6247    0.2108 H   0  0  0  0  0  0  0  0  0  0  0  0
    0.2017   -2.4148    0.5602 H   0  0  0  0  0  0  0  0  0  0  0  0
   -4.7146   -3.3001   -0.3247 H   0  0  0  0  0  0  0  0  0  0  0  0
   -5.9432    1.1397    0.5638 H   0  0  0  0  0  0  0  0  0  0  0  0
   -4.9465    0.1350    1.6308 H   0  0  0  0  0  0  0  0  0  0  0  0
   -4.2831    1.7076    1.0247 H   0  0  0  0  0  0  0  0  0  0  0  0
   -3.5656    1.6072   -1.5860 H   0  0  0  0  0  0  0  0  0  0  0  0
   -5.3347    1.3254   -1.8670 H   0  0  0  0  0  0  0  0  0  0  0  0
   -4.0867    0.1651   -2.5012 H   0  0  0  0  0  0  0  0  0  0  0  0
    1.8277   -1.2333   -0.3035 H   0  0  0  0  0  0  0  0  0  0  0  0
    1.7080    3.2274    1.7084 H   0  0  0  0  0  0  0  0  0  0  0  0
   -0.3840    1.9619    1.3740 H   0  0  0  0  0  0  0  0  0  0  0  0
    4.5660    3.1429    1.3531 H   0  0  0  0  0  0  0  0  0  0  0  0
    4.0655   -1.8871    0.7012 H   0  0  0  0  0  0  0  0  0  0  0  0
    4.8059   -0.8125    1.9064 H   0  0  0  0  0  0  0  0  0  0  0  0
    5.8461   -1.4719    0.5216 H   0  0  0  0  0  0  0  0  0  0  0  0
    4.9682    0.8173   -1.9567 H   0  0  0  0  0  0  0  0  0  0  0  0
    3.7853   -0.5833   -1.9801 H   0  0  0  0  0  0  0  0  0  0  0  0
    5.4755   -0.8957   -1.5493 H   0  0  0  0  0  0  0  0  0  0  0  0
  1  2  1  0
  2  3  2  0
  3  4  1  0
  4  5  2  0
  5  6  1  0
  6  7  2  0
  5  8  1  0
  8  9  1  0
  9 10  2  0
  9 11  1  0
 11 12  1  0
 11 13  1  0
  1 14  2  0
 14 15  1  0
 15 16  2  0
 16 17  1  0
 17 18  2  0
 16 19  1  0
 19 20  1  0
 20 21  2  0
 20 22  1  0
 22 23  1  0
 22 24  1  0
 18  1  1  0
  7  2  1  0
 22 15  1  0
 11  4  1  0
  3 25  1  0
  6 26  1  0
  7 27  1  0
  8 28  1  0
 12 29  1  0
 12 30  1  0
 12 31  1  0
 13 32  1  0
 13 33  1  0
 13 34  1  0
 14 35  1  0
 17 36  1  0
 18 37  1  0
 19 38  1  0
 23 39  1  0
 23 40  1  0
 23 41  1  0
 24 42  1  0
 24 43  1  0
 24 44  1  0
M  END
$$$$
[H]c1c(N([H])c2c([H])c([H])c([H])c3c([H])c(C#N)c([H])c([H])c23)nnc(C([H])([H])N([H])C([H])([H])C([H])([H])O[C@]2([H])C([H])([H])C([H])([H])C([H])([H])C([H])([H])[C@]2([H])N([H])C(=O)c2c([H])c([H])c(Cl)c([H])c2Cl)c1[H]
     RDKit          3D

 71 75  0  0  0  0  0  0  0  0999 V2000
   13.7359   -1.0205    0.8817 N   0  0  0  0  0  0  0  0  0  0  0  0
   12.5890   -1.1256    0.7355 C   0  0  0  0  0  0  0  0  0  0  0  0
   11.1615   -1.2380    0.5401 C   0  0  0  0  0  0  0  0  0  0  0  0
   10.3163   -0.4147    1.2367 C   0  0  0  0  0  0  0  0  0  0  0  0
    8.9266   -0.5066    1.0626 C   0  0  0  0  0  0  0  0  0  0  0  0
    8.4150   -1.4169    0.1990 C   0  0  0  0  0  0  0  0  0  0  0  0
    7.0183   -1.5095    0.0147 C   0  0  0  0  0  0  0  0  0  0  0  0
    6.1594   -0.6971    0.7831 N   0  0  0  0  0  0  0  0  0  0  0  0
    4.8051   -0.4852    0.5371 C   0  0  0  0  0  0  0  0  0  0  0  0
    4.0814    0.3104    1.4454 C   0  0  0  0  0  0  0  0  0  0  0  0
    2.7613    0.5559    1.2023 C   0  0  0  0  0  0  0  0  0  0  0  0
    2.1030    0.0565    0.1012 C   0  0  0  0  0  0  0  0  0  0  0  0
    0.6825    0.3250   -0.1628 C   0  0  0  0  0  0  0  0  0  0  0  0
   -0.1444    0.0471    0.9936 N   0  0  0  0  0  0  0  0  0  0  0  0
   -1.5359    0.3251    0.6901 C   0  0  0  0  0  0  0  0  0  0  0  0
   -2.4343    0.0657    1.8568 C   0  0  0  0  0  0  0  0  0  0  0  0
   -3.7689    0.3273    1.5813 O   0  0  0  0  0  0  0  0  0  0  0  0
   -4.0501    1.6157    1.2275 C   0  0  2  0  0  0  0  0  0  0  0  0
   -4.9852    2.2908    2.1962 C   0  0  0  0  0  0  0  0  0  0  0  0
   -5.5175    3.5885    1.6292 C   0  0  0  0  0  0  0  0  0  0  0  0
   -4.6809    4.0820    0.4730 C   0  0  0  0  0  0  0  0  0  0  0  0
   -4.6675    3.1042   -0.6769 C   0  0  0  0  0  0  0  0  0  0  0  0
   -4.5501    1.6668   -0.1966 C   0  0  2  0  0  0  0  0  0  0  0  0
   -5.7828    0.9415   -0.3863 N   0  0  0  0  0  0  0  0  0  0  0  0
   -5.9163   -0.1782   -1.2401 C   0  0  0  0  0  0  0  0  0  0  0  0
   -4.9028   -0.5714   -1.8779 O   0  0  0  0  0  0  0  0  0  0  0  0
   -7.1511   -0.9090   -1.4318 C   0  0  0  0  0  0  0  0  0  0  0  0
   -7.4582   -1.9889   -0.6207 C   0  0  0  0  0  0  0  0  0  0  0  0
   -8.6291   -2.7084   -0.7788 C   0  0  0  0  0  0  0  0  0  0  0  0
   -9.5496   -2.3747   -1.7631 C   0  0  0  0  0  0  0  0  0  0  0  0
  -11.0271   -3.2918   -1.9531 Cl  0  0  0  0  0  0  0  0  0  0  0  0
   -9.2418   -1.2995   -2.5694 C   0  0  0  0  0  0  0  0  0  0  0  0
   -8.0742   -0.5850   -2.4092 C   0  0  0  0  0  0  0  0  0  0  0  0
   -7.6932    0.7783   -3.4371 Cl  0  0  0  0  0  0  0  0  0  0  0  0
    2.8549   -0.6998   -0.7314 N   0  0  0  0  0  0  0  0  0  0  0  0
    4.1288   -0.9374   -0.4979 N   0  0  0  0  0  0  0  0  0  0  0  0
    6.5563   -2.4407   -0.8757 C   0  0  0  0  0  0  0  0  0  0  0  0
    7.4597   -3.2649   -1.5713 C   0  0  0  0  0  0  0  0  0  0  0  0
    8.8087   -3.1740   -1.3913 C   0  0  0  0  0  0  0  0  0  0  0  0
    9.2964   -2.2451   -0.5005 C   0  0  0  0  0  0  0  0  0  0  0  0
   10.6728   -2.1694   -0.3420 C   0  0  0  0  0  0  0  0  0  0  0  0
   10.7126    0.3152    1.9286 H   0  0  0  0  0  0  0  0  0  0  0  0
    8.3450    0.1701    1.6300 H   0  0  0  0  0  0  0  0  0  0  0  0
    6.5808   -0.2100    1.6513 H   0  0  0  0  0  0  0  0  0  0  0  0
    4.5632    0.7133    2.3106 H   0  0  0  0  0  0  0  0  0  0  0  0
    2.2001    1.1720    1.9051 H   0  0  0  0  0  0  0  0  0  0  0  0
    0.5080    1.3663   -0.5036 H   0  0  0  0  0  0  0  0  0  0  0  0
    0.3545   -0.3610   -0.9872 H   0  0  0  0  0  0  0  0  0  0  0  0
    0.1303    0.7188    1.7677 H   0  0  0  0  0  0  0  0  0  0  0  0
   -1.8057   -0.4151   -0.1205 H   0  0  0  0  0  0  0  0  0  0  0  0
   -1.5909    1.3196    0.2595 H   0  0  0  0  0  0  0  0  0  0  0  0
   -2.1458    0.7843    2.6769 H   0  0  0  0  0  0  0  0  0  0  0  0
   -2.3625   -0.9735    2.2259 H   0  0  0  0  0  0  0  0  0  0  0  0
   -3.1114    2.2068    1.2432 H   0  0  0  0  0  0  0  0  0  0  0  0
   -5.8029    1.6405    2.5508 H   0  0  0  0  0  0  0  0  0  0  0  0
   -4.3844    2.5622    3.0896 H   0  0  0  0  0  0  0  0  0  0  0  0
   -5.5573    4.4003    2.3783 H   0  0  0  0  0  0  0  0  0  0  0  0
   -6.5580    3.4459    1.2355 H   0  0  0  0  0  0  0  0  0  0  0  0
   -3.6766    4.3620    0.8163 H   0  0  0  0  0  0  0  0  0  0  0  0
   -5.1660    5.0083    0.1014 H   0  0  0  0  0  0  0  0  0  0  0  0
   -3.8132    3.3888   -1.3294 H   0  0  0  0  0  0  0  0  0  0  0  0
   -5.5772    3.2256   -1.2996 H   0  0  0  0  0  0  0  0  0  0  0  0
   -3.7572    1.1955   -0.8167 H   0  0  0  0  0  0  0  0  0  0  0  0
   -6.6556    1.2352    0.1251 H   0  0  0  0  0  0  0  0  0  0  0  0
   -6.7775   -2.2994    0.1688 H   0  0  0  0  0  0  0  0  0  0  0  0
   -8.8867   -3.5597   -0.1504 H   0  0  0  0  0  0  0  0  0  0  0  0
   -9.9650   -1.0341   -3.3458 H   0  0  0  0  0  0  0  0  0  0  0  0
    5.5007   -2.6183   -1.0858 H   0  0  0  0  0  0  0  0  0  0  0  0
    7.0568   -3.9821   -2.2617 H   0  0  0  0  0  0  0  0  0  0  0  0
    9.5146   -3.8075   -1.9251 H   0  0  0  0  0  0  0  0  0  0  0  0
   11.3551   -2.7987   -0.8726 H   0  0  0  0  0  0  0  0  0  0  0  0
  1  2  3  0
  2  3  1  0
  3  4  2  0
  4  5  1  0
  5  6  2  0
  6  7  1  0
  7  8  1  0
  8  9  1  0
  9 10  2  0
 10 11  1  0
 11 12  2  0
 12 13  1  0
 13 14  1  0
 14 15  1  0
 15 16  1  0
 16 17  1  0
 17 18  1  0
 18 19  1  0
 19 20  1  0
 20 21  1  0
 21 22  1  0
 22 23  1  0
 23 24  1  0
 24 25  1  0
 25 26  2  0
 25 27  1  0
 27 28  2  0
 28 29  1  0
 29 30  2  0
 30 31  1  0
 30 32  1  0
 32 33  2  0
 33 34  1  0
 12 35  1  0
 35 36  2  0
  7 37  2  0
 37 38  1  0
 38 39  2  0
 39 40  1  0
 40 41  2  0
 41  3  1  0
 40  6  1  0
 36  9  1  0
 23 18  1  0
 33 27  1  0
  4 42  1  0
  5 43  1  0
  8 44  1  0
 10 45  1  0
 11 46  1  0
 13 47  1  0
 13 48  1  0
 14 49  1  0
 15 50  1  0
 15 51  1  0
 16 52  1  0
 16 53  1  0
 18 54  1  6
 19 55  1  0
 19 56  1  0
 20 57  1  0
 20 58  1  0
 21 59  1  0
 21 60  1  0
 22 61  1  0
 22 62  1  0
 23 63  1  6
 24 64  1  0
 28 65  1  0
 29 66  1  0
 32 67  1  0
 37 68  1  0
 38 69  1  0
 39 70  1  0
 41 71  1  0
M  END
$$$$
[H]c1sc(N2C([H])([H])C([H])([H])OC([H])([H])C2([H])[H])nc1-c1c([H])c(C(=O)N([H])C([H])(c2c([H])c([H])c(C([H])([H])[H])c(S(=O)(=O)N([H])C([H])([H])c3c([H])c([H])c(OC([H])([H])[H])c([H])c3[H])c2[H])C([H])([H])[H])c([H])c([H])c1Cl
     RDKit          3D

 76 80  0  0  0  0  0  0  0  0999 V2000
   12.7121   -0.2294    2.5674 C   0  0  0  0  0  0  0  0  0  0  0  0
   12.4926   -0.8617    1.3233 O   0  0  0  0  0  0  0  0  0  0  0  0
   11.3268   -0.5264    0.6256 C   0  0  0  0  0  0  0  0  0  0  0  0
   10.4265    0.3912    1.1430 C   0  0  0  0  0  0  0  0  0  0  0  0
    9.2552    0.7410    0.4609 C   0  0  0  0  0  0  0  0  0  0  0  0
    8.9772    0.1656   -0.7576 C   0  0  0  0  0  0  0  0  0  0  0  0
    7.7410    0.5068   -1.5313 C   0  0  0  0  0  0  0  0  0  0  0  0
    6.6451   -0.3374   -1.1310 N   0  0  0  0  0  0  0  0  0  0  0  0
    5.1912   -0.0679   -1.9102 S   0  0  0  0  0  0  0  0  0  0  0  0
    4.8271   -1.3096   -2.6895 O   0  0  0  0  0  0  0  0  0  0  0  0
    5.3950    1.0247   -2.9691 O   0  0  0  0  0  0  0  0  0  0  0  0
    3.8369    0.4363   -0.9702 C   0  0  0  0  0  0  0  0  0  0  0  0
    2.7183   -0.4059   -0.9684 C   0  0  0  0  0  0  0  0  0  0  0  0
    1.5582   -0.1586   -0.2765 C   0  0  0  0  0  0  0  0  0  0  0  0
    1.4888    1.0026    0.4715 C   0  0  0  0  0  0  0  0  0  0  0  0
    2.5789    1.8417    0.4813 C   0  0  0  0  0  0  0  0  0  0  0  0
    3.7529    1.5849   -0.2236 C   0  0  0  0  0  0  0  0  0  0  0  0
    4.8977    2.5081   -0.1946 C   0  0  0  0  0  0  0  0  0  0  0  0
    0.3936   -1.1060   -0.3304 C   0  0  0  0  0  0  0  0  0  0  0  0
    0.5361   -1.9973   -1.5807 C   0  0  0  0  0  0  0  0  0  0  0  0
   -0.8660   -0.4201   -0.5066 N   0  0  0  0  0  0  0  0  0  0  0  0
   -2.0350   -0.7506    0.2161 C   0  0  0  0  0  0  0  0  0  0  0  0
   -1.9931   -1.6794    1.0485 O   0  0  0  0  0  0  0  0  0  0  0  0
   -3.3134   -0.0318    0.0187 C   0  0  0  0  0  0  0  0  0  0  0  0
   -3.3325    1.2027   -0.5745 C   0  0  0  0  0  0  0  0  0  0  0  0
   -4.5323    1.8545   -0.7619 C   0  0  0  0  0  0  0  0  0  0  0  0
   -5.7123    1.2492   -0.3464 C   0  0  0  0  0  0  0  0  0  0  0  0
   -7.2364    2.0837   -0.5883 Cl  0  0  0  0  0  0  0  0  0  0  0  0
   -5.6768    0.0113    0.2465 C   0  0  0  0  0  0  0  0  0  0  0  0
   -4.4911   -0.6307    0.4318 C   0  0  0  0  0  0  0  0  0  0  0  0
   -6.9392   -0.6417    0.6792 C   0  0  0  0  0  0  0  0  0  0  0  0
   -6.9460   -1.9013    1.2364 C   0  0  0  0  0  0  0  0  0  0  0  0
   -8.6095   -2.1514    1.5229 S   0  0  0  0  0  0  0  0  0  0  0  0
   -9.2033   -0.6433    0.9196 C   0  0  0  0  0  0  0  0  0  0  0  0
  -10.5529   -0.1765    0.8537 N   0  0  0  0  0  0  0  0  0  0  0  0
  -11.1084    0.5119    1.9760 C   0  0  0  0  0  0  0  0  0  0  0  0
  -12.3983    1.1858    1.5941 C   0  0  0  0  0  0  0  0  0  0  0  0
  -12.2784    1.6960    0.3027 O   0  0  0  0  0  0  0  0  0  0  0  0
  -12.2714    0.6923   -0.6624 C   0  0  0  0  0  0  0  0  0  0  0  0
  -11.3133   -0.4120   -0.3364 C   0  0  0  0  0  0  0  0  0  0  0  0
   -8.0885   -0.0562    0.5419 N   0  0  0  0  0  0  0  0  0  0  0  0
    9.8759   -0.7470   -1.2676 C   0  0  0  0  0  0  0  0  0  0  0  0
   11.0321   -1.0945   -0.5978 C   0  0  0  0  0  0  0  0  0  0  0  0
   12.6390    0.8828    2.4828 H   0  0  0  0  0  0  0  0  0  0  0  0
   13.6963   -0.5318    2.9969 H   0  0  0  0  0  0  0  0  0  0  0  0
   11.8945   -0.5399    3.2712 H   0  0  0  0  0  0  0  0  0  0  0  0
   10.6463    0.8417    2.1019 H   0  0  0  0  0  0  0  0  0  0  0  0
    8.5753    1.4624    0.8962 H   0  0  0  0  0  0  0  0  0  0  0  0
    7.4867    1.5653   -1.4459 H   0  0  0  0  0  0  0  0  0  0  0  0
    7.9486    0.3557   -2.6365 H   0  0  0  0  0  0  0  0  0  0  0  0
    6.9386   -1.3385   -1.0546 H   0  0  0  0  0  0  0  0  0  0  0  0
    2.7270   -1.3434   -1.5493 H   0  0  0  0  0  0  0  0  0  0  0  0
    0.5982    1.2299    1.0262 H   0  0  0  0  0  0  0  0  0  0  0  0
    2.5880    2.7771    1.0527 H   0  0  0  0  0  0  0  0  0  0  0  0
    5.7748    2.0825    0.3572 H   0  0  0  0  0  0  0  0  0  0  0  0
    4.5966    3.3968    0.3977 H   0  0  0  0  0  0  0  0  0  0  0  0
    5.1847    2.8930   -1.1955 H   0  0  0  0  0  0  0  0  0  0  0  0
    0.3948   -1.8081    0.5068 H   0  0  0  0  0  0  0  0  0  0  0  0
    1.2918   -2.7787   -1.4449 H   0  0  0  0  0  0  0  0  0  0  0  0
    0.8538   -1.3487   -2.4156 H   0  0  0  0  0  0  0  0  0  0  0  0
   -0.4304   -2.5116   -1.7553 H   0  0  0  0  0  0  0  0  0  0  0  0
   -0.9184    0.3554   -1.1989 H   0  0  0  0  0  0  0  0  0  0  0  0
   -2.4055    1.6906   -0.9063 H   0  0  0  0  0  0  0  0  0  0  0  0
   -4.5379    2.8405   -1.2366 H   0  0  0  0  0  0  0  0  0  0  0  0
   -4.4156   -1.6163    0.8992 H   0  0  0  0  0  0  0  0  0  0  0  0
   -6.0860   -2.5680    1.4403 H   0  0  0  0  0  0  0  0  0  0  0  0
  -10.3827    1.3117    2.2917 H   0  0  0  0  0  0  0  0  0  0  0  0
  -11.3139   -0.1829    2.8382 H   0  0  0  0  0  0  0  0  0  0  0  0
  -12.4983    2.0870    2.2663 H   0  0  0  0  0  0  0  0  0  0  0  0
  -13.2589    0.4966    1.6912 H   0  0  0  0  0  0  0  0  0  0  0  0
  -13.2938    0.2932   -0.8458 H   0  0  0  0  0  0  0  0  0  0  0  0
  -11.9549    1.1743   -1.6057 H   0  0  0  0  0  0  0  0  0  0  0  0
  -10.5855   -0.5231   -1.1914 H   0  0  0  0  0  0  0  0  0  0  0  0
  -11.8819   -1.3696   -0.2655 H   0  0  0  0  0  0  0  0  0  0  0  0
    9.6370   -1.1900   -2.2314 H   0  0  0  0  0  0  0  0  0  0  0  0
   11.7309   -1.8215   -1.0233 H   0  0  0  0  0  0  0  0  0  0  0  0
  1  2  1  0
  2  3  1  0
  3  4  2  0
  4  5  1  0
  5  6  2  0
  6  7  1  0
  7  8  1  0
  8  9  1  0
  9 10  2  0
  9 11  2  0
  9 12  1  0
 12 13  2  0
 13 14  1  0
 14 15  2  0
 15 16  1  0
 16 17  2  0
 17 18  1  0
 14 19  1  0
 19 20  1  0
 19 21  1  0
 21 22  1  0
 22 23  2  0
 22 24  1  0
 24 25  2  0
 25 26  1  0
 26 27  2  0
 27 28  1  0
 27 29  1  0
 29 30  2  0
 29 31  1  0
 31 32  2  0
 32 33  1  0
 33 34  1  0
 34 35  1  0
 35 36  1  0
 36 37  1  0
 37 38  1  0
 38 39  1  0
 39 40  1  0
 34 41  2  0
  6 42  1  0
 42 43  2  0
 43  3  1  0
 17 12  1  0
 30 24  1  0
 41 31  1  0
 40 35  1  0
  1 44  1  0
  1 45  1  0
  1 46  1  0
  4 47  1  0
  5 48  1  0
  7 49  1  0
  7 50  1  0
  8 51  1  0
 13 52  1  0
 15 53  1  0
 16 54  1  0
 18 55  1  0
 18 56  1  0
 18 57  1  0
 19 58  1  0
 20 59  1  0
 20 60  1  0
 20 61  1  0
 21 62  1  0
 25 63  1  0
 26 64  1  0
 30 65  1  0
 32 66  1  0
 36 67  1  0
 36 68  1  0
 37 69  1  0
 37 70  1  0
 39 71  1  0
 39 72  1  0
 40 73  1  0
 40 74  1  0
 42 75  1  0
 43 76  1  0
M  END
$$$$
[H]C1=C([H])C([H])(F)C([H])([H])C([H])=C1N([H])C(=O)C1(C(=O)N([H])c2c([H])c([H])c(Oc3c([H])c([H])nc4c([H])c(OC([H])([H])C([H])([H])C([H])([H])N5C([H])([H])C([H])([H])C([H])([H])C5([H])[H])c(OC([H])([H])[H])c([H])c34)c(F)c2[H])C([H])([H])C1([H])[H]
     RDKit          3D

 81 86  0  0  0  0  0  0  0  0999 V2000
   -3.5877    0.0230   -2.5605 C   0  0  0  0  0  0  0  0  0  0  0  0
   -4.4433   -0.0435   -1.4508 O   0  0  0  0  0  0  0  0  0  0  0  0
   -3.9880   -0.2494   -0.1491 C   0  0  0  0  0  0  0  0  0  0  0  0
   -2.6478   -0.3994    0.1096 C   0  0  0  0  0  0  0  0  0  0  0  0
   -2.1587   -0.6042    1.3755 C   0  0  0  0  0  0  0  0  0  0  0  0
   -0.7923   -0.7567    1.6112 C   0  0  0  0  0  0  0  0  0  0  0  0
    0.0250   -0.6916    0.5279 O   0  0  0  0  0  0  0  0  0  0  0  0
    1.3913   -0.8525    0.4754 C   0  0  0  0  0  0  0  0  0  0  0  0
    2.2342    0.1729    0.0692 C   0  0  0  0  0  0  0  0  0  0  0  0
    3.5918   -0.0103    0.0220 C   0  0  0  0  0  0  0  0  0  0  0  0
    4.2120   -1.2204    0.3732 C   0  0  0  0  0  0  0  0  0  0  0  0
    5.6358   -1.3113    0.3171 N   0  0  0  0  0  0  0  0  0  0  0  0
    6.4056   -2.4553    0.1478 C   0  0  0  0  0  0  0  0  0  0  0  0
    5.7718   -3.5663    0.0427 O   0  0  0  0  0  0  0  0  0  0  0  0
    7.8601   -2.5227    0.0895 C   0  0  0  0  0  0  0  0  0  0  0  0
    8.4588   -3.8753   -0.2867 C   0  0  0  0  0  0  0  0  0  0  0  0
    8.4428   -3.4847    1.1392 C   0  0  0  0  0  0  0  0  0  0  0  0
    8.7035   -1.3424   -0.2300 C   0  0  0  0  0  0  0  0  0  0  0  0
    9.9255   -1.4864    0.1717 O   0  0  0  0  0  0  0  0  0  0  0  0
    8.2626   -0.2155   -0.8859 N   0  0  0  0  0  0  0  0  0  0  0  0
    8.9663    0.9916   -1.2279 C   0  0  0  0  0  0  0  0  0  0  0  0
   10.2261    1.1961   -0.9431 C   0  0  0  0  0  0  0  0  0  0  0  0
   10.9546    2.4310   -1.2907 C   0  0  0  0  0  0  0  0  0  0  0  0
   10.1946    3.4846   -1.9837 C   0  0  0  0  0  0  0  0  0  0  0  0
   10.2335    4.6437   -1.1848 F   0  0  0  0  0  0  0  0  0  0  0  0
    8.8021    3.1813   -2.2644 C   0  0  0  0  0  0  0  0  0  0  0  0
    8.2359    2.0634   -1.9301 C   0  0  0  0  0  0  0  0  0  0  0  0
    3.3805   -2.2291    0.7736 C   0  0  0  0  0  0  0  0  0  0  0  0
    1.9865   -2.0377    0.8203 C   0  0  0  0  0  0  0  0  0  0  0  0
    1.2365   -3.0982    1.2142 F   0  0  0  0  0  0  0  0  0  0  0  0
   -0.4287   -0.9581    2.9201 C   0  0  0  0  0  0  0  0  0  0  0  0
   -1.3521   -1.0070    3.9339 C   0  0  0  0  0  0  0  0  0  0  0  0
   -2.6377   -0.8567    3.6575 N   0  0  0  0  0  0  0  0  0  0  0  0
   -3.0892   -0.6527    2.3915 C   0  0  0  0  0  0  0  0  0  0  0  0
   -4.4416   -0.5052    2.1646 C   0  0  0  0  0  0  0  0  0  0  0  0
   -4.8811   -0.3029    0.8827 C   0  0  0  0  0  0  0  0  0  0  0  0
   -6.2490   -0.1596    0.6965 O   0  0  0  0  0  0  0  0  0  0  0  0
   -7.1921   -0.2052    1.7204 C   0  0  0  0  0  0  0  0  0  0  0  0
   -8.5663   -0.0150    1.1322 C   0  0  0  0  0  0  0  0  0  0  0  0
   -8.6955    1.3020    0.4220 C   0  0  0  0  0  0  0  0  0  0  0  0
  -10.0037    1.4621   -0.1281 N   0  0  0  0  0  0  0  0  0  0  0  0
  -10.2287    2.6808   -0.8350 C   0  0  0  0  0  0  0  0  0  0  0  0
  -11.1566    2.3511   -2.0081 C   0  0  0  0  0  0  0  0  0  0  0  0
  -11.7165    1.0092   -1.5741 C   0  0  0  0  0  0  0  0  0  0  0  0
  -10.4689    0.3786   -0.9383 C   0  0  0  0  0  0  0  0  0  0  0  0
   -4.1462    0.4826   -3.4058 H   0  0  0  0  0  0  0  0  0  0  0  0
   -2.7486    0.7305   -2.3481 H   0  0  0  0  0  0  0  0  0  0  0  0
   -3.2042   -0.9751   -2.8684 H   0  0  0  0  0  0  0  0  0  0  0  0
   -1.9172   -0.3599   -0.6920 H   0  0  0  0  0  0  0  0  0  0  0  0
    1.7492    1.1006   -0.1989 H   0  0  0  0  0  0  0  0  0  0  0  0
    4.2444    0.7990   -0.2985 H   0  0  0  0  0  0  0  0  0  0  0  0
    6.1068   -0.3582    0.4880 H   0  0  0  0  0  0  0  0  0  0  0  0
    7.7266   -4.6220   -0.6534 H   0  0  0  0  0  0  0  0  0  0  0  0
    9.4183   -3.8918   -0.8472 H   0  0  0  0  0  0  0  0  0  0  0  0
    9.4104   -3.1476    1.6028 H   0  0  0  0  0  0  0  0  0  0  0  0
    7.7630   -3.9592    1.8454 H   0  0  0  0  0  0  0  0  0  0  0  0
    7.2650   -0.2466   -1.2614 H   0  0  0  0  0  0  0  0  0  0  0  0
   10.8241    0.4296   -0.4110 H   0  0  0  0  0  0  0  0  0  0  0  0
   11.8456    2.1794   -1.9484 H   0  0  0  0  0  0  0  0  0  0  0  0
   11.3908    2.8108   -0.3161 H   0  0  0  0  0  0  0  0  0  0  0  0
   10.6645    3.7949   -2.9610 H   0  0  0  0  0  0  0  0  0  0  0  0
    8.2315    3.9729   -2.7929 H   0  0  0  0  0  0  0  0  0  0  0  0
    7.1670    1.8981   -2.1758 H   0  0  0  0  0  0  0  0  0  0  0  0
    3.7856   -3.1876    1.0764 H   0  0  0  0  0  0  0  0  0  0  0  0
    0.6075   -1.0712    3.1537 H   0  0  0  0  0  0  0  0  0  0  0  0
   -1.0717   -1.1659    4.9745 H   0  0  0  0  0  0  0  0  0  0  0  0
   -5.1120   -0.5552    3.0169 H   0  0  0  0  0  0  0  0  0  0  0  0
   -7.1820   -1.2490    2.1462 H   0  0  0  0  0  0  0  0  0  0  0  0
   -6.9796    0.4646    2.5680 H   0  0  0  0  0  0  0  0  0  0  0  0
   -9.3685   -0.0413    1.9143 H   0  0  0  0  0  0  0  0  0  0  0  0
   -8.7385   -0.8568    0.4359 H   0  0  0  0  0  0  0  0  0  0  0  0
   -8.5595    2.1075    1.1881 H   0  0  0  0  0  0  0  0  0  0  0  0
   -7.8715    1.4342   -0.3151 H   0  0  0  0  0  0  0  0  0  0  0  0
  -10.7856    3.4045   -0.1999 H   0  0  0  0  0  0  0  0  0  0  0  0
   -9.3011    3.1863   -1.1756 H   0  0  0  0  0  0  0  0  0  0  0  0
  -11.9700    3.1048   -2.1030 H   0  0  0  0  0  0  0  0  0  0  0  0
  -10.5960    2.2617   -2.9622 H   0  0  0  0  0  0  0  0  0  0  0  0
  -12.4672    1.2054   -0.7918 H   0  0  0  0  0  0  0  0  0  0  0  0
  -12.0978    0.4163   -2.4102 H   0  0  0  0  0  0  0  0  0  0  0  0
  -10.7030   -0.5229   -0.3684 H   0  0  0  0  0  0  0  0  0  0  0  0
   -9.7919    0.1704   -1.8195 H   0  0  0  0  0  0  0  0  0  0  0  0
  1  2  1  0
  2  3  1  0
  3  4  2  0
  4  5  1  0
  5  6  2  0
  6  7  1  0
  7  8  1  0
  8  9  2  0
  9 10  1  0
 10 11  2  0
 11 12  1  0
 12 13  1  0
 13 14  2  0
 13 15  1  0
 15 16  1  0
 16 17  1  0
 15 18  1  0
 18 19  2  0
 18 20  1  0
 20 21  1  0
 21 22  2  0
 22 23  1  0
 23 24  1  0
 24 25  1  0
 24 26  1  0
 26 27  2  0
 11 28  1  0
 28 29  2  0
 29 30  1  0
  6 31  1  0
 31 32  2  0
 32 33  1  0
 33 34  2  0
 34 35  1  0
 35 36  2  0
 36 37  1  0
 37 38  1  0
 38 39  1  0
 39 40  1  0
 40 41  1  0
 41 42  1  0
 42 43  1  0
 43 44  1  0
 44 45  1  0
 36  3  1  0
 45 41  1  0
 34  5  1  0
 29  8  1  0
 17 15  1  0
 27 21  1  0
  1 46  1  0
  1 47  1  0
  1 48  1  0
  4 49  1  0
  9 50  1  0
 10 51  1  0
 12 52  1  0
 16 53  1  0
 16 54  1  0
 17 55  1  0
 17 56  1  0
 20 57  1  0
 22 58  1  0
 23 59  1  0
 23 60  1  0
 24 61  1  0
 26 62  1  0
 27 63  1  0
 28 64  1  0
 31 65  1  0
 32 66  1  0
 35 67  1  0
 38 68  1  0
 38 69  1  0
 39 70  1  0
 39 71  1  0
 40 72  1  0
 40 73  1  0
 42 74  1  0
 42 75  1  0
 43 76  1  0
 43 77  1  0
 44 78  1  0
 44 79  1  0
 45 80  1  0
 45 81  1  0
M  END
$$$$
[H]O[C@@]1([H])C([H])([H])N(c2c([H])c([H])c(-c3nc(-c4c([H])c([H])c(C#N)c([H])c4[H])c([H])s3)c([H])c2[H])C([H])([H])[C@@]1([H])C([H])([H])[H]
     RDKit          3D

 45 48  0  0  0  0  0  0  0  0999 V2000
   -5.1361    0.6555   -1.9242 C   0  0  0  0  0  0  0  0  0  0  0  0
   -5.6185    1.1721   -0.5851 C   0  0  2  0  0  0  0  0  0  0  0  0
   -4.3788    1.6515    0.1748 C   0  0  0  0  0  0  0  0  0  0  0  0
   -3.8364    0.4072    0.6615 N   0  0  0  0  0  0  0  0  0  0  0  0
   -4.9608   -0.3545    1.1663 C   0  0  0  0  0  0  0  0  0  0  0  0
   -6.1161    0.0506    0.2768 C   0  0  2  0  0  0  0  0  0  0  0  0
   -6.4683   -1.0828   -0.4723 O   0  0  0  0  0  0  0  0  0  0  0  0
   -2.4586    0.0316    0.6382 C   0  0  0  0  0  0  0  0  0  0  0  0
   -1.4757    0.8603    0.1535 C   0  0  0  0  0  0  0  0  0  0  0  0
   -0.1288    0.4621    0.1429 C   0  0  0  0  0  0  0  0  0  0  0  0
    0.2460   -0.7676    0.6168 C   0  0  0  0  0  0  0  0  0  0  0  0
   -0.7256   -1.6071    1.1046 C   0  0  0  0  0  0  0  0  0  0  0  0
   -2.0582   -1.2172    1.1168 C   0  0  0  0  0  0  0  0  0  0  0  0
    1.6625   -1.1580    0.5936 C   0  0  0  0  0  0  0  0  0  0  0  0
    2.7199   -0.5273    0.1832 N   0  0  0  0  0  0  0  0  0  0  0  0
    3.8943   -1.0726    0.2583 C   0  0  0  0  0  0  0  0  0  0  0  0
    3.9642   -2.3396    0.7891 C   0  0  0  0  0  0  0  0  0  0  0  0
    2.3232   -2.6583    1.1447 S   0  0  0  0  0  0  0  0  0  0  0  0
    5.1280   -0.3830   -0.2009 C   0  0  0  0  0  0  0  0  0  0  0  0
    5.0599    0.8863   -0.7330 C   0  0  0  0  0  0  0  0  0  0  0  0
    6.1829    1.5596   -1.1705 C   0  0  0  0  0  0  0  0  0  0  0  0
    7.4322    0.9717   -1.0872 C   0  0  0  0  0  0  0  0  0  0  0  0
    7.5099   -0.2933   -0.5583 C   0  0  0  0  0  0  0  0  0  0  0  0
    6.3637   -0.9672   -0.1174 C   0  0  0  0  0  0  0  0  0  0  0  0
    8.6069    1.6812   -1.5472 C   0  0  0  0  0  0  0  0  0  0  0  0
    9.5498    2.2434   -1.8951 N   0  0  0  0  0  0  0  0  0  0  0  0
   -5.9671    0.7475   -2.6679 H   0  0  0  0  0  0  0  0  0  0  0  0
   -4.2816    1.2484   -2.3238 H   0  0  0  0  0  0  0  0  0  0  0  0
   -4.7828   -0.3934   -1.8495 H   0  0  0  0  0  0  0  0  0  0  0  0
   -6.3694    1.9734   -0.6920 H   0  0  0  0  0  0  0  0  0  0  0  0
   -3.7159    2.2363   -0.4584 H   0  0  0  0  0  0  0  0  0  0  0  0
   -4.7436    2.2233    1.0700 H   0  0  0  0  0  0  0  0  0  0  0  0
   -4.7827   -1.4452    1.1477 H   0  0  0  0  0  0  0  0  0  0  0  0
   -5.1579    0.0179    2.2133 H   0  0  0  0  0  0  0  0  0  0  0  0
   -7.0181    0.3299    0.8751 H   0  0  0  0  0  0  0  0  0  0  0  0
   -6.0926   -1.9150   -0.0888 H   0  0  0  0  0  0  0  0  0  0  0  0
   -1.7530    1.8423   -0.2271 H   0  0  0  0  0  0  0  0  0  0  0  0
    0.6042    1.1364   -0.2426 H   0  0  0  0  0  0  0  0  0  0  0  0
   -0.4165   -2.5666    1.4722 H   0  0  0  0  0  0  0  0  0  0  0  0
   -2.8159   -1.8633    1.4936 H   0  0  0  0  0  0  0  0  0  0  0  0
    4.8576   -2.9719    0.9391 H   0  0  0  0  0  0  0  0  0  0  0  0
    4.0991    1.3728   -0.8117 H   0  0  0  0  0  0  0  0  0  0  0  0
    6.1434    2.5605   -1.5920 H   0  0  0  0  0  0  0  0  0  0  0  0
    8.4658   -0.7764   -0.4803 H   0  0  0  0  0  0  0  0  0  0  0  0
    6.4454   -1.9613    0.2955 H   0  0  0  0  0  0  0  0  0  0  0  0
  1  2  1  0
  2  3  1  0
  3  4  1  0
  4  5  1  0
  5  6  1  0
  6  7  1  0
  4  8  1  0
  8  9  2  0
  9 10  1  0
 10 11  2  0
 11 12  1  0
 12 13  2  0
 11 14  1  0
 14 15  2  0
 15 16  1  0
 16 17  2  0
 17 18  1  0
 16 19  1  0
 19 20  2  0
 20 21  1  0
 21 22  2  0
 22 23  1  0
 23 24  2  0
 22 25  1  0
 25 26  3  0
  6  2  1  0
 13  8  1  0
 18 14  1  0
 24 19  1  0
  1 27  1  0
  1 28  1  0
  1 29  1  0
  2 30  1  6
  3 31  1  0
  3 32  1  0
  5 33  1  0
  5 34  1  0
  6 35  1  1
  7 36  1  0
  9 37  1  0
 10 38  1  0
 12 39  1  0
 13 40  1  0
 17 41  1  0
 20 42  1  0
 21 43  1  0
 23 44  1  0
 24 45  1  0
M  END
$$$$
[H]c1nc2c([H])c(OC([H])([H])C([H])([H])C([H])([H])N3C([H])([H])C([H])([H])N(C([H])([H])[H])C([H])([H])C3([H])[H])c(OC([H])([H])[H])c([H])c2c(N([H])c2c([H])c(OC([H])([H])[H])c(Cl)c([H])c2Cl)c1C#N
     RDKit          3D

 65 68  0  0  0  0  0  0  0  0999 V2000
   -5.2946    0.1799   -2.9709 C   0  0  0  0  0  0  0  0  0  0  0  0
   -6.0951   -0.9158   -2.5530 O   0  0  0  0  0  0  0  0  0  0  0  0
   -6.1608   -1.1576   -1.1778 C   0  0  0  0  0  0  0  0  0  0  0  0
   -5.4971   -0.3938   -0.2509 C   0  0  0  0  0  0  0  0  0  0  0  0
   -5.5371   -0.6002    1.1107 C   0  0  0  0  0  0  0  0  0  0  0  0
   -4.8166    0.2382    2.0340 N   0  0  0  0  0  0  0  0  0  0  0  0
   -4.0248    1.3195    1.6049 C   0  0  0  0  0  0  0  0  0  0  0  0
   -4.6352    2.5531    1.4917 C   0  0  0  0  0  0  0  0  0  0  0  0
   -3.8290    3.6094    1.0643 C   0  0  0  0  0  0  0  0  0  0  0  0
   -2.5270    3.4300    0.7791 N   0  0  0  0  0  0  0  0  0  0  0  0
   -1.9535    2.2186    0.8968 C   0  0  0  0  0  0  0  0  0  0  0  0
   -0.6053    1.9975    0.6091 C   0  0  0  0  0  0  0  0  0  0  0  0
   -0.0254    0.7512    0.7328 C   0  0  0  0  0  0  0  0  0  0  0  0
    1.3282    0.5594    0.4376 O   0  0  0  0  0  0  0  0  0  0  0  0
    2.1607    1.6065    0.0051 C   0  0  0  0  0  0  0  0  0  0  0  0
    3.5417    1.0243   -0.2125 C   0  0  0  0  0  0  0  0  0  0  0  0
    3.4226   -0.0554   -1.2622 C   0  0  0  0  0  0  0  0  0  0  0  0
    4.6627   -0.6900   -1.5641 N   0  0  0  0  0  0  0  0  0  0  0  0
    5.1982   -1.4923   -0.4904 C   0  0  0  0  0  0  0  0  0  0  0  0
    6.5388   -0.9813   -0.0123 C   0  0  0  0  0  0  0  0  0  0  0  0
    7.5161   -0.9508   -1.0794 N   0  0  0  0  0  0  0  0  0  0  0  0
    8.4297    0.1509   -0.7994 C   0  0  0  0  0  0  0  0  0  0  0  0
    6.9128   -0.6710   -2.3660 C   0  0  0  0  0  0  0  0  0  0  0  0
    5.6339    0.1418   -2.1961 C   0  0  0  0  0  0  0  0  0  0  0  0
   -0.7837   -0.3247    1.1524 C   0  0  0  0  0  0  0  0  0  0  0  0
   -0.1660   -1.5451    1.2609 O   0  0  0  0  0  0  0  0  0  0  0  0
   -0.8182   -2.7273    1.6769 C   0  0  0  0  0  0  0  0  0  0  0  0
   -2.1295   -0.1321    1.4455 C   0  0  0  0  0  0  0  0  0  0  0  0
   -2.6832    1.1246    1.3132 C   0  0  0  0  0  0  0  0  0  0  0  0
   -6.0331    2.7467    1.7978 C   0  0  0  0  0  0  0  0  0  0  0  0
   -7.1560    2.8867    2.0549 N   0  0  0  0  0  0  0  0  0  0  0  0
   -6.3055   -1.6561    1.5519 C   0  0  0  0  0  0  0  0  0  0  0  0
   -6.4410   -2.0259    3.2478 Cl  0  0  0  0  0  0  0  0  0  0  0  0
   -7.0004   -2.4646    0.6587 C   0  0  0  0  0  0  0  0  0  0  0  0
   -6.9278   -2.2166   -0.6919 C   0  0  0  0  0  0  0  0  0  0  0  0
   -7.7733   -3.1886   -1.8765 Cl  0  0  0  0  0  0  0  0  0  0  0  0
   -5.4136    0.3597   -4.0746 H   0  0  0  0  0  0  0  0  0  0  0  0
   -4.2180   -0.0377   -2.8166 H   0  0  0  0  0  0  0  0  0  0  0  0
   -5.5182    1.1093   -2.4102 H   0  0  0  0  0  0  0  0  0  0  0  0
   -4.8824    0.4495   -0.5886 H   0  0  0  0  0  0  0  0  0  0  0  0
   -4.9019    0.0142    3.0487 H   0  0  0  0  0  0  0  0  0  0  0  0
   -4.3295    4.5717    0.9823 H   0  0  0  0  0  0  0  0  0  0  0  0
   -0.0170    2.8280    0.2846 H   0  0  0  0  0  0  0  0  0  0  0  0
    1.7778    1.9385   -1.0008 H   0  0  0  0  0  0  0  0  0  0  0  0
    2.1821    2.4558    0.7154 H   0  0  0  0  0  0  0  0  0  0  0  0
    4.2210    1.8377   -0.5139 H   0  0  0  0  0  0  0  0  0  0  0  0
    3.9285    0.6049    0.7361 H   0  0  0  0  0  0  0  0  0  0  0  0
    2.9821    0.3266   -2.1992 H   0  0  0  0  0  0  0  0  0  0  0  0
    2.7315   -0.8214   -0.8541 H   0  0  0  0  0  0  0  0  0  0  0  0
    5.2338   -2.5366   -0.8312 H   0  0  0  0  0  0  0  0  0  0  0  0
    4.5037   -1.4099    0.3697 H   0  0  0  0  0  0  0  0  0  0  0  0
    6.3881   -0.0055    0.4627 H   0  0  0  0  0  0  0  0  0  0  0  0
    6.9097   -1.6815    0.7631 H   0  0  0  0  0  0  0  0  0  0  0  0
    7.9186    0.8915   -0.1786 H   0  0  0  0  0  0  0  0  0  0  0  0
    9.2446   -0.2873   -0.1540 H   0  0  0  0  0  0  0  0  0  0  0  0
    8.8635    0.5756   -1.7319 H   0  0  0  0  0  0  0  0  0  0  0  0
    7.6268   -0.0558   -2.9818 H   0  0  0  0  0  0  0  0  0  0  0  0
    6.6852   -1.5665   -2.9435 H   0  0  0  0  0  0  0  0  0  0  0  0
    5.9066    1.0433   -1.6186 H   0  0  0  0  0  0  0  0  0  0  0  0
    5.2600    0.4179   -3.1952 H   0  0  0  0  0  0  0  0  0  0  0  0
   -1.6281   -3.0342    0.9852 H   0  0  0  0  0  0  0  0  0  0  0  0
   -0.0534   -3.5288    1.7326 H   0  0  0  0  0  0  0  0  0  0  0  0
   -1.1857   -2.5572    2.7031 H   0  0  0  0  0  0  0  0  0  0  0  0
   -2.7370   -0.9576    1.7739 H   0  0  0  0  0  0  0  0  0  0  0  0
   -7.6050   -3.2933    0.9881 H   0  0  0  0  0  0  0  0  0  0  0  0
  1  2  1  0
  2  3  1  0
  3  4  2  0
  4  5  1  0
  5  6  1  0
  6  7  1  0
  7  8  2  0
  8  9  1  0
  9 10  2  0
 10 11  1  0
 11 12  2  0
 12 13  1  0
 13 14  1  0
 14 15  1  0
 15 16  1  0
 16 17  1  0
 17 18  1  0
 18 19  1  0
 19 20  1  0
 20 21  1  0
 21 22  1  0
 21 23  1  0
 23 24  1  0
 13 25  2  0
 25 26  1  0
 26 27  1  0
 25 28  1  0
 28 29  2  0
  8 30  1  0
 30 31  3  0
  5 32  2  0
 32 33  1  0
 32 34  1  0
 34 35  2  0
 35 36  1  0
 35  3  1  0
 29  7  1  0
 29 11  1  0
 24 18  1  0
  1 37  1  0
  1 38  1  0
  1 39  1  0
  4 40  1  0
  6 41  1  0
  9 42  1  0
 12 43  1  0
 15 44  1  0
 15 45  1  0
 16 46  1  0
 16 47  1  0
 17 48  1  0
 17 49  1  0
 19 50  1  0
 19 51  1  0
 20 52  1  0
 20 53  1  0
 22 54  1  0
 22 55  1  0
 22 56  1  0
 23 57  1  0
 23 58  1  0
 24 59  1  0
 24 60  1  0
 27 61  1  0
 27 62  1  0
 27 63  1  0
 28 64  1  0
 34 65  1  0
M  END
$$$$
[H]Oc1c([H])c([H])c(C([H])([H])[C@@]([H])(C(=O)N([H])[C@]([H])(C(=O)N2C([H])([H])C([H])([H])C([H])([H])[C@@]2([H])C(=O)N([H])[C@]([H])(C(=O)N([H])[H])C([H])([H])c2c([H])c([H])c([H])c([H])c2[H])C([H])([H])c2c([H])c([H])c(O[H])c([H])c2[H])N([H])[H])c([H])c1[H]
     RDKit          3D

 80 83  0  0  0  0  0  0  0  0999 V2000
    4.4488    0.9718   -1.6333 N   0  0  0  0  0  0  0  0  0  0  0  0
    4.8684    0.3231   -0.3706 C   0  0  1  0  0  0  0  0  0  0  0  0
    5.3594    1.4171    0.4916 C   0  0  0  0  0  0  0  0  0  0  0  0
    5.8555    1.1034    1.8154 C   0  0  0  0  0  0  0  0  0  0  0  0
    5.0506    1.1823    2.9192 C   0  0  0  0  0  0  0  0  0  0  0  0
    5.4971    0.8971    4.2073 C   0  0  0  0  0  0  0  0  0  0  0  0
    6.8107    0.5143    4.4013 C   0  0  0  0  0  0  0  0  0  0  0  0
    7.3000    0.2186    5.6699 O   0  0  0  0  0  0  0  0  0  0  0  0
    7.6241    0.4345    3.2876 C   0  0  0  0  0  0  0  0  0  0  0  0
    7.1839    0.7166    2.0116 C   0  0  0  0  0  0  0  0  0  0  0  0
    3.6802   -0.4379    0.1770 C   0  0  0  0  0  0  0  0  0  0  0  0
    3.9339   -1.0876    1.2059 O   0  0  0  0  0  0  0  0  0  0  0  0
    2.4455   -0.3727   -0.4682 N   0  0  0  0  0  0  0  0  0  0  0  0
    1.2584   -0.3104   -1.0881 C   0  0  1  0  0  0  0  0  0  0  0  0
    0.7202   -1.6702   -1.5937 C   0  0  0  0  0  0  0  0  0  0  0  0
    1.6598   -2.3070   -2.5454 C   0  0  0  0  0  0  0  0  0  0  0  0
    1.6149   -2.1495   -3.9100 C   0  0  0  0  0  0  0  0  0  0  0  0
    2.5345   -2.7920   -4.7252 C   0  0  0  0  0  0  0  0  0  0  0  0
    3.5281   -3.6110   -4.2101 C   0  0  0  0  0  0  0  0  0  0  0  0
    4.4518   -4.2608   -5.0103 O   0  0  0  0  0  0  0  0  0  0  0  0
    3.5847   -3.7784   -2.8239 C   0  0  0  0  0  0  0  0  0  0  0  0
    2.6629   -3.1325   -2.0325 C   0  0  0  0  0  0  0  0  0  0  0  0
    0.1400    0.2578   -0.2405 C   0  0  0  0  0  0  0  0  0  0  0  0
    0.0848   -0.0769    0.9867 O   0  0  0  0  0  0  0  0  0  0  0  0
   -0.8341    1.1294   -0.7453 N   0  0  0  0  0  0  0  0  0  0  0  0
   -0.8873    1.6845   -2.0758 C   0  0  0  0  0  0  0  0  0  0  0  0
   -1.7326    2.9463   -1.9441 C   0  0  0  0  0  0  0  0  0  0  0  0
   -1.8935    3.1139   -0.4360 C   0  0  0  0  0  0  0  0  0  0  0  0
   -1.9954    1.6323   -0.0333 C   0  0  1  0  0  0  0  0  0  0  0  0
   -3.2684    1.1164   -0.5825 C   0  0  0  0  0  0  0  0  0  0  0  0
   -3.2581    0.5378   -1.6881 O   0  0  0  0  0  0  0  0  0  0  0  0
   -4.5108    1.2348    0.0654 N   0  0  0  0  0  0  0  0  0  0  0  0
   -5.7489    0.7502   -0.4819 C   0  0  1  0  0  0  0  0  0  0  0  0
   -5.9440   -0.6902   -0.0305 C   0  0  0  0  0  0  0  0  0  0  0  0
   -6.0008   -0.8629    1.4254 C   0  0  0  0  0  0  0  0  0  0  0  0
   -4.8560   -1.0714    2.1587 C   0  0  0  0  0  0  0  0  0  0  0  0
   -4.9275   -1.2518    3.5152 C   0  0  0  0  0  0  0  0  0  0  0  0
   -6.1536   -1.2252    4.1556 C   0  0  0  0  0  0  0  0  0  0  0  0
   -7.2736   -1.0169    3.4134 C   0  0  0  0  0  0  0  0  0  0  0  0
   -7.2159   -0.8353    2.0600 C   0  0  0  0  0  0  0  0  0  0  0  0
   -6.9087    1.6029   -0.2860 C   0  0  0  0  0  0  0  0  0  0  0  0
   -8.1931    1.2932   -0.8158 N   0  0  0  0  0  0  0  0  0  0  0  0
   -6.8405    2.6888    0.3791 O   0  0  0  0  0  0  0  0  0  0  0  0
    3.6034    0.5412   -2.0120 H   0  0  0  0  0  0  0  0  0  0  0  0
    4.4382    1.9974   -1.5700 H   0  0  0  0  0  0  0  0  0  0  0  0
    5.6572   -0.4255   -0.5401 H   0  0  0  0  0  0  0  0  0  0  0  0
    4.5227    2.1694    0.5683 H   0  0  0  0  0  0  0  0  0  0  0  0
    6.1292    1.9768   -0.1298 H   0  0  0  0  0  0  0  0  0  0  0  0
    4.0148    1.4862    2.7970 H   0  0  0  0  0  0  0  0  0  0  0  0
    4.8527    0.9600    5.0791 H   0  0  0  0  0  0  0  0  0  0  0  0
    7.7139    0.9430    6.2579 H   0  0  0  0  0  0  0  0  0  0  0  0
    8.6550    0.1359    3.4307 H   0  0  0  0  0  0  0  0  0  0  0  0
    7.8088    0.6590    1.1324 H   0  0  0  0  0  0  0  0  0  0  0  0
    1.9379   -1.2174    0.4747 H   0  0  0  0  0  0  0  0  0  0  0  0
    1.2370    0.3443   -2.0027 H   0  0  0  0  0  0  0  0  0  0  0  0
    0.5177   -2.3237   -0.7200 H   0  0  0  0  0  0  0  0  0  0  0  0
   -0.2238   -1.4436   -2.1106 H   0  0  0  0  0  0  0  0  0  0  0  0
    0.8714   -1.5340   -4.3781 H   0  0  0  0  0  0  0  0  0  0  0  0
    2.4922   -2.6666   -5.8006 H   0  0  0  0  0  0  0  0  0  0  0  0
    5.3121   -3.7895   -5.2227 H   0  0  0  0  0  0  0  0  0  0  0  0
    4.3604   -4.4152   -2.4372 H   0  0  0  0  0  0  0  0  0  0  0  0
    2.7384   -3.2883   -0.9600 H   0  0  0  0  0  0  0  0  0  0  0  0
   -1.2234    0.9946   -2.8383 H   0  0  0  0  0  0  0  0  0  0  0  0
    0.1241    2.0607   -2.4006 H   0  0  0  0  0  0  0  0  0  0  0  0
   -1.2290    3.8335   -2.3855 H   0  0  0  0  0  0  0  0  0  0  0  0
   -2.6919    2.7833   -2.4443 H   0  0  0  0  0  0  0  0  0  0  0  0
   -2.7794    3.6750   -0.1607 H   0  0  0  0  0  0  0  0  0  0  0  0
   -0.9429    3.4896   -0.0468 H   0  0  0  0  0  0  0  0  0  0  0  0
   -1.9418    1.4747    1.0348 H   0  0  0  0  0  0  0  0  0  0  0  0
   -4.5286    1.7063    1.0055 H   0  0  0  0  0  0  0  0  0  0  0  0
   -5.5498    0.6379   -1.5955 H   0  0  0  0  0  0  0  0  0  0  0  0
   -6.8584   -1.0954   -0.5384 H   0  0  0  0  0  0  0  0  0  0  0  0
   -5.0889   -1.2679   -0.4509 H   0  0  0  0  0  0  0  0  0  0  0  0
   -3.8826   -1.0996    1.6850 H   0  0  0  0  0  0  0  0  0  0  0  0
   -4.0322   -1.4143    4.1241 H   0  0  0  0  0  0  0  0  0  0  0  0
   -6.1774   -1.3719    5.2234 H   0  0  0  0  0  0  0  0  0  0  0  0
   -8.2423   -0.9992    3.9109 H   0  0  0  0  0  0  0  0  0  0  0  0
   -8.1559   -0.6700    1.5051 H   0  0  0  0  0  0  0  0  0  0  0  0
   -8.2149    0.6513   -1.6309 H   0  0  0  0  0  0  0  0  0  0  0  0
   -9.0793    1.6755   -0.4283 H   0  0  0  0  0  0  0  0  0  0  0  0
  1  2  1  0
  2  3  1  0
  3  4  1  0
  4  5  2  0
  5  6  1  0
  6  7  2  0
  7  8  1  0
  7  9  1  0
  9 10  2  0
  2 11  1  0
 11 12  2  0
 11 13  1  0
 13 14  1  0
 14 15  1  0
 15 16  1  0
 16 17  2  0
 17 18  1  0
 18 19  2  0
 19 20  1  0
 19 21  1  0
 21 22  2  0
 14 23  1  0
 23 24  2  0
 23 25  1  0
 25 26  1  0
 26 27  1  0
 27 28  1  0
 28 29  1  0
 29 30  1  0
 30 31  2  0
 30 32  1  0
 32 33  1  0
 33 34  1  0
 34 35  1  0
 35 36  2  0
 36 37  1  0
 37 38  2  0
 38 39  1  0
 39 40  2  0
 33 41  1  0
 41 42  1  0
 41 43  2  0
 10  4  1  0
 22 16  1  0
 29 25  1  0
 40 35  1  0
  1 44  1  0
  1 45  1  0
  2 46  1  6
  3 47  1  0
  3 48  1  0
  5 49  1  0
  6 50  1  0
  8 51  1  0
  9 52  1  0
 10 53  1  0
 13 54  1  0
 14 55  1  6
 15 56  1  0
 15 57  1  0
 17 58  1  0
 18 59  1  0
 20 60  1  0
 21 61  1  0
 22 62  1  0
 26 63  1  0
 26 64  1  0
 27 65  1  0
 27 66  1  0
 28 67  1  0
 28 68  1  0
 29 69  1  1
 32 70  1  0
 33 71  1  6
 34 72  1  0
 34 73  1  0
 36 74  1  0
 37 75  1  0
 38 76  1  0
 39 77  1  0
 40 78  1  0
 42 79  1  0
 42 80  1  0
M  END
$$$$
[H]c1nc(N2C([H])([H])C([H])([H])N(c3c([H])c([H])c([H])c([H])c3C([H])(C([H])([H])[H])C([H])([H])[H])C([H])([H])C2([H])[H])sc1C(=O)N([H])c1c([H])c([H])c([H])c(Br)c1[H]
     RDKit          3D

 55 58  0  0  0  0  0  0  0  0999 V2000
   -6.5172    0.6676   -1.6399 C   0  0  0  0  0  0  0  0  0  0  0  0
   -5.1971    0.5799   -0.8444 C   0  0  0  0  0  0  0  0  0  0  0  0
   -4.6330    1.9380   -0.6082 C   0  0  0  0  0  0  0  0  0  0  0  0
   -5.3714   -0.2374    0.3614 C   0  0  0  0  0  0  0  0  0  0  0  0
   -6.6622   -0.6628    0.6939 C   0  0  0  0  0  0  0  0  0  0  0  0
   -6.9412   -1.4153    1.8103 C   0  0  0  0  0  0  0  0  0  0  0  0
   -5.9043   -1.7669    2.6396 C   0  0  0  0  0  0  0  0  0  0  0  0
   -4.6375   -1.3825    2.3650 C   0  0  0  0  0  0  0  0  0  0  0  0
   -4.3695   -0.6107    1.2145 C   0  0  0  0  0  0  0  0  0  0  0  0
   -3.0434   -0.2332    0.9262 N   0  0  0  0  0  0  0  0  0  0  0  0
   -2.3695   -0.7601   -0.2209 C   0  0  0  0  0  0  0  0  0  0  0  0
   -1.0150   -1.2513    0.2861 C   0  0  0  0  0  0  0  0  0  0  0  0
   -0.2770   -0.0806    0.6812 N   0  0  0  0  0  0  0  0  0  0  0  0
   -0.9635    1.0275    1.2442 C   0  0  0  0  0  0  0  0  0  0  0  0
   -2.3378    0.6782    1.7809 C   0  0  0  0  0  0  0  0  0  0  0  0
    1.1425   -0.0954    0.4840 C   0  0  0  0  0  0  0  0  0  0  0  0
    2.1078   -0.4804    1.2917 N   0  0  0  0  0  0  0  0  0  0  0  0
    3.3437   -0.4147    0.9191 C   0  0  0  0  0  0  0  0  0  0  0  0
    3.6093    0.0655   -0.3353 C   0  0  0  0  0  0  0  0  0  0  0  0
    2.0353    0.4000   -0.9135 S   0  0  0  0  0  0  0  0  0  0  0  0
    4.9142    0.2454   -1.0104 C   0  0  0  0  0  0  0  0  0  0  0  0
    4.8736    0.6979   -2.1488 O   0  0  0  0  0  0  0  0  0  0  0  0
    6.0826   -0.1003   -0.3327 N   0  0  0  0  0  0  0  0  0  0  0  0
    7.4101   -0.0048   -0.7862 C   0  0  0  0  0  0  0  0  0  0  0  0
    8.4297   -0.6423   -0.0668 C   0  0  0  0  0  0  0  0  0  0  0  0
    9.7232   -0.5444   -0.4929 C   0  0  0  0  0  0  0  0  0  0  0  0
   10.0829    0.1634   -1.6164 C   0  0  0  0  0  0  0  0  0  0  0  0
    9.1137    0.7868   -2.3255 C   0  0  0  0  0  0  0  0  0  0  0  0
    9.4961    1.7915   -3.8923 Br  0  0  0  0  0  0  0  0  0  0  0  0
    7.7943    0.6948   -1.9020 C   0  0  0  0  0  0  0  0  0  0  0  0
   -6.8843   -0.3378   -1.9042 H   0  0  0  0  0  0  0  0  0  0  0  0
   -6.2933    1.2022   -2.5923 H   0  0  0  0  0  0  0  0  0  0  0  0
   -7.2290    1.2932   -1.0775 H   0  0  0  0  0  0  0  0  0  0  0  0
   -4.5206    0.0367   -1.5271 H   0  0  0  0  0  0  0  0  0  0  0  0
   -5.2561    2.6810   -1.1919 H   0  0  0  0  0  0  0  0  0  0  0  0
   -3.6305    2.0067   -1.0207 H   0  0  0  0  0  0  0  0  0  0  0  0
   -4.7172    2.2803    0.4435 H   0  0  0  0  0  0  0  0  0  0  0  0
   -7.5010   -0.3871    0.0363 H   0  0  0  0  0  0  0  0  0  0  0  0
   -7.9321   -1.7431    2.0675 H   0  0  0  0  0  0  0  0  0  0  0  0
   -6.0612   -2.3667    3.5475 H   0  0  0  0  0  0  0  0  0  0  0  0
   -3.7704   -1.6354    2.9934 H   0  0  0  0  0  0  0  0  0  0  0  0
   -2.1697    0.0636   -0.9352 H   0  0  0  0  0  0  0  0  0  0  0  0
   -2.9250   -1.5675   -0.7323 H   0  0  0  0  0  0  0  0  0  0  0  0
   -0.4937   -1.8734   -0.4571 H   0  0  0  0  0  0  0  0  0  0  0  0
   -1.1373   -1.8658    1.2165 H   0  0  0  0  0  0  0  0  0  0  0  0
   -1.0370    1.8221    0.4784 H   0  0  0  0  0  0  0  0  0  0  0  0
   -0.3942    1.4580    2.0908 H   0  0  0  0  0  0  0  0  0  0  0  0
   -2.8481    1.6471    1.9544 H   0  0  0  0  0  0  0  0  0  0  0  0
   -2.2036    0.2534    2.8174 H   0  0  0  0  0  0  0  0  0  0  0  0
    4.1810   -0.7304    1.5741 H   0  0  0  0  0  0  0  0  0  0  0  0
    5.9964   -0.4963    0.6847 H   0  0  0  0  0  0  0  0  0  0  0  0
    8.2017   -1.2109    0.8218 H   0  0  0  0  0  0  0  0  0  0  0  0
   10.5432   -1.0298    0.0451 H   0  0  0  0  0  0  0  0  0  0  0  0
   11.1162    0.2369   -1.9504 H   0  0  0  0  0  0  0  0  0  0  0  0
    7.0466    1.2096   -2.4810 H   0  0  0  0  0  0  0  0  0  0  0  0
  1  2  1  0
  2  3  1  0
  2  4  1  0
  4  5  2  0
  5  6  1  0
  6  7  2  0
  7  8  1  0
  8  9  2  0
  9 10  1  0
 10 11  1  0
 11 12  1  0
 12 13  1  0
 13 14  1  0
 14 15  1  0
 13 16  1  0
 16 17  2  0
 17 18  1  0
 18 19  2  0
 19 20  1  0
 19 21  1  0
 21 22  2  0
 21 23  1  0
 23 24  1  0
 24 25  2  0
 25 26  1  0
 26 27  2  0
 27 28  1  0
 28 29  1  0
 28 30  2  0
  9  4  1  0
 15 10  1  0
 20 16  1  0
 30 24  1  0
  1 31  1  0
  1 32  1  0
  1 33  1  0
  2 34  1  0
  3 35  1  0
  3 36  1  0
  3 37  1  0
  5 38  1  0
  6 39  1  0
  7 40  1  0
  8 41  1  0
 11 42  1  0
 11 43  1  0
 12 44  1  0
 12 45  1  0
 14 46  1  0
 14 47  1  0
 15 48  1  0
 15 49  1  0
 18 50  1  0
 23 51  1  0
 25 52  1  0
 26 53  1  0
 27 54  1  0
 30 55  1  0
M  END
$$$$
[H]C1=C(N([H])C(=O)C2(C(=O)N([H])c3c([H])c([H])c(Oc4c([H])c([H])nc5c([H])c(OC([H])([H])C([H])([H])C([H])([H])N6C([H])([H])C([H])([H])OC([H])([H])C6([H])[H])c(OC([H])([H])[H])c([H])c45)c(F)c3[H])C([H])([H])C2([H])[H])C(F)=C([H])C([H])(F)C1([H])[H]
     RDKit          3D

 82 87  0  0  0  0  0  0  0  0999 V2000
   -3.1729    2.5594   -2.6169 C   0  0  0  0  0  0  0  0  0  0  0  0
   -4.1977    2.0786   -1.7714 O   0  0  0  0  0  0  0  0  0  0  0  0
   -3.8593    1.2248   -0.7393 C   0  0  0  0  0  0  0  0  0  0  0  0
   -2.5592    0.8581   -0.5500 C   0  0  0  0  0  0  0  0  0  0  0  0
   -2.1583    0.0108    0.4606 C   0  0  0  0  0  0  0  0  0  0  0  0
   -0.8023   -0.3252    0.6027 C   0  0  0  0  0  0  0  0  0  0  0  0
    0.1082    0.1967   -0.2815 O   0  0  0  0  0  0  0  0  0  0  0  0
    1.4359   -0.0969   -0.2894 C   0  0  0  0  0  0  0  0  0  0  0  0
    2.3686    0.9044   -0.0389 C   0  0  0  0  0  0  0  0  0  0  0  0
    3.7104    0.6217   -0.0473 C   0  0  0  0  0  0  0  0  0  0  0  0
    4.2014   -0.6658   -0.3034 C   0  0  0  0  0  0  0  0  0  0  0  0
    5.5980   -0.8776   -0.3357 N   0  0  0  0  0  0  0  0  0  0  0  0
    6.2574   -2.0729   -0.0658 C   0  0  0  0  0  0  0  0  0  0  0  0
    5.5308   -3.1039    0.2390 O   0  0  0  0  0  0  0  0  0  0  0  0
    7.7188   -2.2804   -0.1018 C   0  0  0  0  0  0  0  0  0  0  0  0
    8.1057   -3.6348   -0.6452 C   0  0  0  0  0  0  0  0  0  0  0  0
    8.1829   -3.4330    0.8162 C   0  0  0  0  0  0  0  0  0  0  0  0
    8.7027   -1.2039   -0.1533 C   0  0  0  0  0  0  0  0  0  0  0  0
    9.9049   -1.6297   -0.4734 O   0  0  0  0  0  0  0  0  0  0  0  0
    8.6303    0.1540    0.0692 N   0  0  0  0  0  0  0  0  0  0  0  0
    9.7903    1.0091   -0.0773 C   0  0  0  0  0  0  0  0  0  0  0  0
   10.2412    1.6789    0.9589 C   0  0  0  0  0  0  0  0  0  0  0  0
   11.4011    2.5786    0.9575 C   0  0  0  0  0  0  0  0  0  0  0  0
   12.0990    2.7467   -0.3510 C   0  0  0  0  0  0  0  0  0  0  0  0
   12.2099    4.0984   -0.6932 F   0  0  0  0  0  0  0  0  0  0  0  0
   11.5394    1.9677   -1.4634 C   0  0  0  0  0  0  0  0  0  0  0  0
   10.4827    1.1701   -1.3462 C   0  0  0  0  0  0  0  0  0  0  0  0
   10.0241    0.4877   -2.4342 F   0  0  0  0  0  0  0  0  0  0  0  0
    3.2700   -1.6242   -0.5451 C   0  0  0  0  0  0  0  0  0  0  0  0
    1.8899   -1.3592   -0.5425 C   0  0  0  0  0  0  0  0  0  0  0  0
    1.0133   -2.3823   -0.8245 F   0  0  0  0  0  0  0  0  0  0  0  0
   -0.4649   -1.1701    1.6315 C   0  0  0  0  0  0  0  0  0  0  0  0
   -1.4836   -1.6277    2.4492 C   0  0  0  0  0  0  0  0  0  0  0  0
   -2.7667   -1.2901    2.2877 N   0  0  0  0  0  0  0  0  0  0  0  0
   -3.1415   -0.4623    1.2907 C   0  0  0  0  0  0  0  0  0  0  0  0
   -4.4717   -0.1047    1.1195 C   0  0  0  0  0  0  0  0  0  0  0  0
   -4.8678    0.7390    0.1118 C   0  0  0  0  0  0  0  0  0  0  0  0
   -6.1492    1.1392   -0.1301 O   0  0  0  0  0  0  0  0  0  0  0  0
   -7.3498    0.8529    0.4588 C   0  0  0  0  0  0  0  0  0  0  0  0
   -7.7908   -0.5716    0.3921 C   0  0  0  0  0  0  0  0  0  0  0  0
   -9.1536   -0.7531    1.0786 C   0  0  0  0  0  0  0  0  0  0  0  0
  -10.0931    0.0963    0.3679 N   0  0  0  0  0  0  0  0  0  0  0  0
  -11.4291   -0.0029    0.9544 C   0  0  0  0  0  0  0  0  0  0  0  0
  -12.2556    1.1137    0.3475 C   0  0  0  0  0  0  0  0  0  0  0  0
  -12.2966    0.9890   -1.0263 O   0  0  0  0  0  0  0  0  0  0  0  0
  -11.6727   -0.1415   -1.4987 C   0  0  0  0  0  0  0  0  0  0  0  0
  -10.2432   -0.2841   -1.0211 C   0  0  0  0  0  0  0  0  0  0  0  0
   -2.7161    1.7174   -3.1658 H   0  0  0  0  0  0  0  0  0  0  0  0
   -3.5718    3.3588   -3.2681 H   0  0  0  0  0  0  0  0  0  0  0  0
   -2.3498    3.0215   -1.9967 H   0  0  0  0  0  0  0  0  0  0  0  0
   -1.7564    1.2254   -1.2029 H   0  0  0  0  0  0  0  0  0  0  0  0
    2.0094    1.9013    0.1606 H   0  0  0  0  0  0  0  0  0  0  0  0
    4.4575    1.4017    0.1485 H   0  0  0  0  0  0  0  0  0  0  0  0
    6.1473   -0.0190   -0.6455 H   0  0  0  0  0  0  0  0  0  0  0  0
    9.0738   -3.6872   -1.1947 H   0  0  0  0  0  0  0  0  0  0  0  0
    7.3192   -4.2596   -1.0974 H   0  0  0  0  0  0  0  0  0  0  0  0
    7.4130   -3.9229    1.4516 H   0  0  0  0  0  0  0  0  0  0  0  0
    9.1531   -3.3562    1.3125 H   0  0  0  0  0  0  0  0  0  0  0  0
    7.7957    0.6530    0.3836 H   0  0  0  0  0  0  0  0  0  0  0  0
    9.6875    1.5380    1.8978 H   0  0  0  0  0  0  0  0  0  0  0  0
   12.1452    2.2705    1.7422 H   0  0  0  0  0  0  0  0  0  0  0  0
   11.0551    3.6044    1.2744 H   0  0  0  0  0  0  0  0  0  0  0  0
   13.1800    2.4307   -0.2051 H   0  0  0  0  0  0  0  0  0  0  0  0
   12.0132    2.0444   -2.4419 H   0  0  0  0  0  0  0  0  0  0  0  0
    3.5101   -2.6431   -0.7684 H   0  0  0  0  0  0  0  0  0  0  0  0
    0.5664   -1.4759    1.8297 H   0  0  0  0  0  0  0  0  0  0  0  0
   -1.2452   -2.2971    3.2696 H   0  0  0  0  0  0  0  0  0  0  0  0
   -5.1890   -0.5026    1.8137 H   0  0  0  0  0  0  0  0  0  0  0  0
   -7.4091    1.2554    1.5183 H   0  0  0  0  0  0  0  0  0  0  0  0
   -8.1430    1.4620   -0.0756 H   0  0  0  0  0  0  0  0  0  0  0  0
   -7.1311   -1.3003    0.8699 H   0  0  0  0  0  0  0  0  0  0  0  0
   -7.9196   -0.8073   -0.7078 H   0  0  0  0  0  0  0  0  0  0  0  0
   -9.4120   -1.8143    1.0471 H   0  0  0  0  0  0  0  0  0  0  0  0
   -9.0448   -0.3355    2.0961 H   0  0  0  0  0  0  0  0  0  0  0  0
  -11.4112    0.1474    2.0442 H   0  0  0  0  0  0  0  0  0  0  0  0
  -11.9093   -0.9677    0.7218 H   0  0  0  0  0  0  0  0  0  0  0  0
  -13.2664    1.1591    0.8056 H   0  0  0  0  0  0  0  0  0  0  0  0
  -11.7378    2.0654    0.5866 H   0  0  0  0  0  0  0  0  0  0  0  0
  -11.6018   -0.0324   -2.6201 H   0  0  0  0  0  0  0  0  0  0  0  0
  -12.2287   -1.0774   -1.3157 H   0  0  0  0  0  0  0  0  0  0  0  0
   -9.9187   -1.3190   -1.2193 H   0  0  0  0  0  0  0  0  0  0  0  0
   -9.6025    0.3831   -1.6247 H   0  0  0  0  0  0  0  0  0  0  0  0
  1  2  1  0
  2  3  1  0
  3  4  2  0
  4  5  1  0
  5  6  2  0
  6  7  1  0
  7  8  1  0
  8  9  2  0
  9 10  1  0
 10 11  2  0
 11 12  1  0
 12 13  1  0
 13 14  2  0
 13 15  1  0
 15 16  1  0
 16 17  1  0
 15 18  1  0
 18 19  2  0
 18 20  1  0
 20 21  1  0
 21 22  2  0
 22 23  1  0
 23 24  1  0
 24 25  1  0
 24 26  1  0
 26 27  2  0
 27 28  1  0
 11 29  1  0
 29 30  2  0
 30 31  1  0
  6 32  1  0
 32 33  2  0
 33 34  1  0
 34 35  2  0
 35 36  1  0
 36 37  2  0
 37 38  1  0
 38 39  1  0
 39 40  1  0
 40 41  1  0
 41 42  1  0
 42 43  1  0
 43 44  1  0
 44 45  1  0
 45 46  1  0
 46 47  1  0
 37  3  1  0
 47 42  1  0
 35  5  1  0
 30  8  1  0
 17 15  1  0
 27 21  1  0
  1 48  1  0
  1 49  1  0
  1 50  1  0
  4 51  1  0
  9 52  1  0
 10 53  1  0
 12 54  1  0
 16 55  1  0
 16 56  1  0
 17 57  1  0
 17 58  1  0
 20 59  1  0
 22 60  1  0
 23 61  1  0
 23 62  1  0
 24 63  1  0
 26 64  1  0
 29 65  1  0
 32 66  1  0
 33 67  1  0
 36 68  1  0
 39 69  1  0
 39 70  1  0
 40 71  1  0
 40 72  1  0
 41 73  1  0
 41 74  1  0
 43 75  1  0
 43 76  1  0
 44 77  1  0
 44 78  1  0
 46 79  1  0
 46 80  1  0
 47 81  1  0
 47 82  1  0
M  END
$$$$
[H]OC([H])([H])C1(C([H])([H])N([H])S(=O)(=O)c2c([H])c([H])c(C([H])([H])[H])c(-c3c([H])nc(N([H])[H])c(-c4onc(C([H])([H])[H])c4[H])c3[H])c2[H])C([H])([H])OC1([H])[H]
     RDKit          3D

 55 58  0  0  0  0  0  0  0  0999 V2000
    8.3488   -0.5912    0.3144 C   0  0  0  0  0  0  0  0  0  0  0  0
    7.1423    0.2572    0.4308 C   0  0  0  0  0  0  0  0  0  0  0  0
    5.8199   -0.0698    0.2259 C   0  0  0  0  0  0  0  0  0  0  0  0
    5.0603    1.0707    0.4596 C   0  0  0  0  0  0  0  0  0  0  0  0
    5.9139    2.0023    0.7825 O   0  0  0  0  0  0  0  0  0  0  0  0
    7.1340    1.5591    0.7745 N   0  0  0  0  0  0  0  0  0  0  0  0
    3.6019    1.1997    0.3631 C   0  0  0  0  0  0  0  0  0  0  0  0
    2.8040    0.1349    0.0100 C   0  0  0  0  0  0  0  0  0  0  0  0
    1.4376    0.2616   -0.0791 C   0  0  0  0  0  0  0  0  0  0  0  0
    0.9135    1.5297    0.2095 C   0  0  0  0  0  0  0  0  0  0  0  0
    1.7136    2.5311    0.5461 N   0  0  0  0  0  0  0  0  0  0  0  0
    3.0509    2.4330    0.6399 C   0  0  0  0  0  0  0  0  0  0  0  0
    3.8631    3.5267    1.0020 N   0  0  0  0  0  0  0  0  0  0  0  0
    0.5492   -0.8077   -0.4488 C   0  0  0  0  0  0  0  0  0  0  0  0
   -0.5484   -1.0983    0.3348 C   0  0  0  0  0  0  0  0  0  0  0  0
   -1.4092   -2.1424   -0.0078 C   0  0  0  0  0  0  0  0  0  0  0  0
   -1.1800   -2.8959   -1.1261 C   0  0  0  0  0  0  0  0  0  0  0  0
   -0.0930   -2.6182   -1.9142 C   0  0  0  0  0  0  0  0  0  0  0  0
    0.7677   -1.5641   -1.5602 C   0  0  0  0  0  0  0  0  0  0  0  0
    1.9187   -1.2844   -2.4394 C   0  0  0  0  0  0  0  0  0  0  0  0
   -2.7966   -2.5093    0.9828 S   0  0  0  0  0  0  0  0  0  0  0  0
   -3.1096   -3.9759    0.8239 O   0  0  0  0  0  0  0  0  0  0  0  0
   -2.4977   -2.2914    2.4401 O   0  0  0  0  0  0  0  0  0  0  0  0
   -4.1979   -1.6345    0.4894 N   0  0  0  0  0  0  0  0  0  0  0  0
   -4.0141   -0.2399    0.5972 C   0  0  0  0  0  0  0  0  0  0  0  0
   -5.1497    0.6179    0.2015 C   0  0  0  0  0  0  0  0  0  0  0  0
   -4.9317    2.1112    0.3247 C   0  0  0  0  0  0  0  0  0  0  0  0
   -6.0475    2.8303   -0.0675 O   0  0  0  0  0  0  0  0  0  0  0  0
   -6.4139    0.2155    0.9709 C   0  0  0  0  0  0  0  0  0  0  0  0
   -6.6354   -0.7250   -0.0602 O   0  0  0  0  0  0  0  0  0  0  0  0
   -6.0259    0.1810   -0.9209 C   0  0  0  0  0  0  0  0  0  0  0  0
    8.3917   -1.2258    1.2438 H   0  0  0  0  0  0  0  0  0  0  0  0
    9.2507    0.0497    0.2754 H   0  0  0  0  0  0  0  0  0  0  0  0
    8.3212   -1.2701   -0.5500 H   0  0  0  0  0  0  0  0  0  0  0  0
    5.4391   -1.0273   -0.0615 H   0  0  0  0  0  0  0  0  0  0  0  0
    3.2741   -0.8174   -0.1940 H   0  0  0  0  0  0  0  0  0  0  0  0
   -0.1679    1.6637    0.1481 H   0  0  0  0  0  0  0  0  0  0  0  0
    4.1370    4.2208    0.2921 H   0  0  0  0  0  0  0  0  0  0  0  0
    4.1802    3.6276    1.9769 H   0  0  0  0  0  0  0  0  0  0  0  0
   -0.7396   -0.5081    1.2226 H   0  0  0  0  0  0  0  0  0  0  0  0
   -1.8477   -3.7137   -1.4007 H   0  0  0  0  0  0  0  0  0  0  0  0
    0.0963   -3.2100   -2.8020 H   0  0  0  0  0  0  0  0  0  0  0  0
    2.1850   -0.2278   -2.5399 H   0  0  0  0  0  0  0  0  0  0  0  0
    1.6392   -1.5995   -3.4959 H   0  0  0  0  0  0  0  0  0  0  0  0
    2.7955   -1.9586   -2.2210 H   0  0  0  0  0  0  0  0  0  0  0  0
   -4.5105   -2.0001   -0.4068 H   0  0  0  0  0  0  0  0  0  0  0  0
   -3.7091   -0.0074    1.6505 H   0  0  0  0  0  0  0  0  0  0  0  0
   -3.1082    0.0433   -0.0152 H   0  0  0  0  0  0  0  0  0  0  0  0
   -4.1183    2.3668   -0.4025 H   0  0  0  0  0  0  0  0  0  0  0  0
   -4.6299    2.3724    1.3480 H   0  0  0  0  0  0  0  0  0  0  0  0
   -6.1655    3.6716    0.4625 H   0  0  0  0  0  0  0  0  0  0  0  0
   -7.1976    0.9974    0.9855 H   0  0  0  0  0  0  0  0  0  0  0  0
   -6.1996   -0.2287    1.9493 H   0  0  0  0  0  0  0  0  0  0  0  0
   -5.5622   -0.2196   -1.8181 H   0  0  0  0  0  0  0  0  0  0  0  0
   -6.7429    0.9868   -1.1917 H   0  0  0  0  0  0  0  0  0  0  0  0
  1  2  1  0
  2  3  1  0
  3  4  2  0
  4  5  1  0
  5  6  1  0
  4  7  1  0
  7  8  2  0
  8  9  1  0
  9 10  2  0
 10 11  1  0
 11 12  2  0
 12 13  1  0
  9 14  1  0
 14 15  2  0
 15 16  1  0
 16 17  2  0
 17 18  1  0
 18 19  2  0
 19 20  1  0
 16 21  1  0
 21 22  2  0
 21 23  2  0
 21 24  1  0
 24 25  1  0
 25 26  1  0
 26 27  1  0
 27 28  1  0
 26 29  1  0
 29 30  1  0
 30 31  1  0
  6  2  2  0
 12  7  1  0
 19 14  1  0
 31 26  1  0
  1 32  1  0
  1 33  1  0
  1 34  1  0
  3 35  1  0
  8 36  1  0
 10 37  1  0
 13 38  1  0
 13 39  1  0
 15 40  1  0
 17 41  1  0
 18 42  1  0
 20 43  1  0
 20 44  1  0
 20 45  1  0
 24 46  1  0
 25 47  1  0
 25 48  1  0
 27 49  1  0
 27 50  1  0
 28 51  1  0
 29 52  1  0
 29 53  1  0
 31 54  1  0
 31 55  1  0
M  END
$$$$
[H]ON([H])C(=O)c1c([H])nc(N([H])C2(c3c([H])c([H])c(F)c([H])c3[H])C([H])([H])C2([H])[H])nc1[H]
     RDKit          3D

 34 36  0  0  0  0  0  0  0  0999 V2000
    6.5152    1.7617   -0.3236 O   0  0  0  0  0  0  0  0  0  0  0  0
    5.3610    1.2737    0.1420 N   0  0  0  0  0  0  0  0  0  0  0  0
    4.3828    0.7317   -0.7293 C   0  0  0  0  0  0  0  0  0  0  0  0
    4.6386    0.7230   -1.9756 O   0  0  0  0  0  0  0  0  0  0  0  0
    3.1025    0.1820   -0.3094 C   0  0  0  0  0  0  0  0  0  0  0  0
    2.9626   -0.3265    0.9927 C   0  0  0  0  0  0  0  0  0  0  0  0
    1.7761   -0.8138    1.3158 N   0  0  0  0  0  0  0  0  0  0  0  0
    0.7048   -0.8641    0.5170 C   0  0  0  0  0  0  0  0  0  0  0  0
   -0.4889   -1.4385    1.0191 N   0  0  0  0  0  0  0  0  0  0  0  0
   -1.7167   -1.5285    0.2531 C   0  0  0  0  0  0  0  0  0  0  0  0
   -2.8268   -2.3913    0.9431 C   0  0  0  0  0  0  0  0  0  0  0  0
   -2.1765   -2.7785   -0.3351 C   0  0  0  0  0  0  0  0  0  0  0  0
   -2.2608   -0.1821   -0.1113 C   0  0  0  0  0  0  0  0  0  0  0  0
   -2.4052    0.7188    0.9202 C   0  0  0  0  0  0  0  0  0  0  0  0
   -2.9067    1.9837    0.7153 C   0  0  0  0  0  0  0  0  0  0  0  0
   -3.2779    2.3714   -0.5554 C   0  0  0  0  0  0  0  0  0  0  0  0
   -3.7772    3.6244   -0.7556 F   0  0  0  0  0  0  0  0  0  0  0  0
   -3.1370    1.4756   -1.5937 C   0  0  0  0  0  0  0  0  0  0  0  0
   -2.6258    0.1887   -1.3775 C   0  0  0  0  0  0  0  0  0  0  0  0
    0.8067   -0.3869   -0.7264 N   0  0  0  0  0  0  0  0  0  0  0  0
    1.9944    0.1283   -1.1261 C   0  0  0  0  0  0  0  0  0  0  0  0
    6.5750    2.7090   -0.1635 H   0  0  0  0  0  0  0  0  0  0  0  0
    5.1999    1.3139    1.1777 H   0  0  0  0  0  0  0  0  0  0  0  0
    3.8390   -0.2688    1.6094 H   0  0  0  0  0  0  0  0  0  0  0  0
   -0.5161   -1.8376    2.0027 H   0  0  0  0  0  0  0  0  0  0  0  0
   -3.8472   -2.0110    0.9393 H   0  0  0  0  0  0  0  0  0  0  0  0
   -2.5353   -2.8491    1.9128 H   0  0  0  0  0  0  0  0  0  0  0  0
   -1.4832   -3.6458   -0.3279 H   0  0  0  0  0  0  0  0  0  0  0  0
   -2.8563   -2.7834   -1.2073 H   0  0  0  0  0  0  0  0  0  0  0  0
   -2.1197    0.4565    1.9510 H   0  0  0  0  0  0  0  0  0  0  0  0
   -3.0045    2.6626    1.5286 H   0  0  0  0  0  0  0  0  0  0  0  0
   -3.4367    1.7921   -2.5737 H   0  0  0  0  0  0  0  0  0  0  0  0
   -2.5226   -0.5041   -2.2045 H   0  0  0  0  0  0  0  0  0  0  0  0
    2.0622    0.5129   -2.1432 H   0  0  0  0  0  0  0  0  0  0  0  0
  1  2  1  0
  2  3  1  0
  3  4  2  0
  3  5  1  0
  5  6  2  0
  6  7  1  0
  7  8  2  0
  8  9  1  0
  9 10  1  0
 10 11  1  0
 11 12  1  0
 10 13  1  0
 13 14  2  0
 14 15  1  0
 15 16  2  0
 16 17  1  0
 16 18  1  0
 18 19  2  0
  8 20  1  0
 20 21  2  0
 21  5  1  0
 12 10  1  0
 19 13  1  0
  1 22  1  0
  2 23  1  0
  6 24  1  0
  9 25  1  0
 11 26  1  0
 11 27  1  0
 12 28  1  0
 12 29  1  0
 14 30  1  0
 15 31  1  0
 18 32  1  0
 19 33  1  0
 21 34  1  0
M  END
$$$$
[H]c1c([H])c([H])c2c(c1[H])Sc1c([H])c([H])c(c([H])c1[H])C(=Nc1c([H])c([H])c3c(c1[H])C([H])([H])C([H])([H])C([H])([H])C3([H])[H])C(=O)C2([H])[H]
     RDKit          2D

 49 53  0  0  0  0  0  0  0  0999 V2000
    3.9271   -3.6073    0.0000 O   0  0  0  0  0  0  0  0  0  0  0  0
    2.4271   -3.6073    0.0000 C   0  0  0  0  0  0  0  0  0  0  0  0
    1.9635   -2.1807    0.0000 C   0  0  0  0  0  0  0  0  0  0  0  0
    0.7500   -1.2990    0.0000 C   0  0  0  0  0  0  0  0  0  0  0  0
    1.5000    0.0000    0.0000 C   0  0  0  0  0  0  0  0  0  0  0  0
    0.7500    1.2990    0.0000 C   0  0  0  0  0  0  0  0  0  0  0  0
   -0.7500    1.2990    0.0000 C   0  0  0  0  0  0  0  0  0  0  0  0
   -1.5000    0.0000    0.0000 C   0  0  0  0  0  0  0  0  0  0  0  0
   -0.7500   -1.2990    0.0000 C   0  0  0  0  0  0  0  0  0  0  0  0
   -1.9635   -2.1807    0.0000 S   0  0  0  0  0  0  0  0  0  0  0  0
   -2.4271   -3.6073    0.0000 C   0  0  0  0  0  0  0  0  0  0  0  0
   -1.9635   -5.0339    0.0000 C   0  0  0  0  0  0  0  0  0  0  0  0
   -0.7500   -5.9156    0.0000 C   0  0  0  0  0  0  0  0  0  0  0  0
    0.7500   -5.9156    0.0000 C   0  0  0  0  0  0  0  0  0  0  0  0
    0.2865   -4.4890    0.0000 C   0  0  0  0  0  0  0  0  0  0  0  0
   -0.9271   -3.6073    0.0000 C   0  0  0  0  0  0  0  0  0  0  0  0
    1.9635   -5.0339    0.0000 C   0  0  0  0  0  0  0  0  0  0  0  0
    3.1771   -5.9156    0.0000 N   0  0  0  0  0  0  0  0  0  0  0  0
    3.0203   -7.4073    0.0000 C   0  0  0  0  0  0  0  0  0  0  0  0
    1.6499   -8.0175    0.0000 C   0  0  0  0  0  0  0  0  0  0  0  0
    1.4931   -9.5092    0.0000 C   0  0  0  0  0  0  0  0  0  0  0  0
    2.7067  -10.3909    0.0000 C   0  0  0  0  0  0  0  0  0  0  0  0
    2.5499  -11.8827    0.0000 C   0  0  0  0  0  0  0  0  0  0  0  0
    3.7634  -12.7644    0.0000 C   0  0  0  0  0  0  0  0  0  0  0  0
    5.1337  -12.1543    0.0000 C   0  0  0  0  0  0  0  0  0  0  0  0
    5.2905  -10.6625    0.0000 C   0  0  0  0  0  0  0  0  0  0  0  0
    4.0770   -9.7808    0.0000 C   0  0  0  0  0  0  0  0  0  0  0  0
    4.2338   -8.2890    0.0000 C   0  0  0  0  0  0  0  0  0  0  0  0
    3.4635   -2.1807    0.0000 H   0  0  0  0  0  0  0  0  0  0  0  0
    2.4271   -0.7541    0.0000 H   0  0  0  0  0  0  0  0  0  0  0  0
    3.0000    0.0000    0.0000 H   0  0  0  0  0  0  0  0  0  0  0  0
    1.5000    2.5981    0.0000 H   0  0  0  0  0  0  0  0  0  0  0  0
   -1.5000    2.5981    0.0000 H   0  0  0  0  0  0  0  0  0  0  0  0
   -3.0000    0.0000    0.0000 H   0  0  0  0  0  0  0  0  0  0  0  0
   -3.1771   -5.9156    0.0000 H   0  0  0  0  0  0  0  0  0  0  0  0
   -1.2135   -7.3421    0.0000 H   0  0  0  0  0  0  0  0  0  0  0  0
    1.5000   -3.6073    0.0000 H   0  0  0  0  0  0  0  0  0  0  0  0
   -0.4635   -2.1807    0.0000 H   0  0  0  0  0  0  0  0  0  0  0  0
    0.4364   -7.1358    0.0000 H   0  0  0  0  0  0  0  0  0  0  0  0
    0.1228  -10.1193    0.0000 H   0  0  0  0  0  0  0  0  0  0  0  0
    1.8923  -13.2309    0.0000 H   0  0  0  0  0  0  0  0  0  0  0  0
    1.1080  -11.4692    0.0000 H   0  0  0  0  0  0  0  0  0  0  0  0
    4.6022  -14.0079    0.0000 H   0  0  0  0  0  0  0  0  0  0  0  0
    2.6844  -13.8064    0.0000 H   0  0  0  0  0  0  0  0  0  0  0  0
    6.6301  -12.0496    0.0000 H   0  0  0  0  0  0  0  0  0  0  0  0
    5.4966  -13.6097    0.0000 H   0  0  0  0  0  0  0  0  0  0  0  0
    5.9481   -9.3143    0.0000 H   0  0  0  0  0  0  0  0  0  0  0  0
    6.7324  -11.0759    0.0000 H   0  0  0  0  0  0  0  0  0  0  0  0
    5.6041   -7.6789    0.0000 H   0  0  0  0  0  0  0  0  0  0  0  0
  1  2  2  0
  2  3  1  0
  3  4  1  0
  4  5  2  0
  5  6  1  0
  6  7  2  0
  7  8  1  0
  8  9  2  0
  9 10  1  0
 10 11  1  0
 11 12  2  0
 12 13  1  0
 13 14  2  0
 14 15  1  0
 15 16  2  0
 14 17  1  0
 17 18  2  3
 18 19  1  0
 19 20  2  0
 20 21  1  0
 21 22  2  0
 22 23  1  0
 23 24  1  0
 24 25  1  0
 25 26  1  0
 26 27  1  0
 27 28  2  0
 17  2  1  0
 28 19  1  0
  9  4  1  0
 16 11  1  0
 27 22  1  0
  3 29  1  0
  3 30  1  0
  5 31  1  0
  6 32  1  0
  7 33  1  0
  8 34  1  0
 12 35  1  0
 13 36  1  0
 15 37  1  0
 16 38  1  0
 20 39  1  0
 21 40  1  0
 23 41  1  0
 23 42  1  0
 24 43  1  0
 24 44  1  0
 25 45  1  0
 25 46  1  0
 26 47  1  0
 26 48  1  0
 28 49  1  0
M  END
$$$$
[H]c1nc([H])c([H])c(C2(C(=O)N([H])[H])C([H])([H])C([H])([H])N(C([H])([H])C([H])([H])C3(c4c([H])c([H])c(Cl)c(Cl)c4[H])C([H])([H])N(C(=O)c4c([H])c(OC([H])([H])[H])c(OC([H])([H])[H])c(OC([H])([H])[H])c4[H])C([H])([H])C3([H])[H])C([H])([H])C2([H])[H])c1[H]
     RDKit          3D

 82 86  0  0  0  0  0  0  0  0999 V2000
    7.6525    2.5032    2.5964 C   0  0  0  0  0  0  0  0  0  0  0  0
    7.5996    2.4461    1.1774 O   0  0  0  0  0  0  0  0  0  0  0  0
    6.5547    1.7324    0.6051 C   0  0  0  0  0  0  0  0  0  0  0  0
    5.6051    1.1060    1.3823 C   0  0  0  0  0  0  0  0  0  0  0  0
    4.5349    0.3772    0.8316 C   0  0  0  0  0  0  0  0  0  0  0  0
    4.4563    0.3013   -0.5235 C   0  0  0  0  0  0  0  0  0  0  0  0
    5.4038    0.9246   -1.3575 C   0  0  0  0  0  0  0  0  0  0  0  0
    5.3473    0.8612   -2.7373 O   0  0  0  0  0  0  0  0  0  0  0  0
    4.2851    0.1310   -3.3230 C   0  0  0  0  0  0  0  0  0  0  0  0
    6.4245    1.6220   -0.7663 C   0  0  0  0  0  0  0  0  0  0  0  0
    7.3778    2.2483   -1.5500 O   0  0  0  0  0  0  0  0  0  0  0  0
    7.2109    3.5802   -1.9939 C   0  0  0  0  0  0  0  0  0  0  0  0
    3.6312   -0.2562    1.7580 C   0  0  0  0  0  0  0  0  0  0  0  0
    3.9379   -0.1608    3.0307 O   0  0  0  0  0  0  0  0  0  0  0  0
    2.4526   -0.9726    1.5254 N   0  0  0  0  0  0  0  0  0  0  0  0
    1.6790   -1.5701    2.6354 C   0  0  0  0  0  0  0  0  0  0  0  0
    0.8891   -2.6657    1.9760 C   0  0  0  0  0  0  0  0  0  0  0  0
    0.4987   -2.0131    0.6452 C   0  0  0  0  0  0  0  0  0  0  0  0
   -0.6831   -1.1309    0.9700 C   0  0  0  0  0  0  0  0  0  0  0  0
   -1.2493   -0.3960   -0.1975 C   0  0  0  0  0  0  0  0  0  0  0  0
   -2.4098    0.3678    0.2695 N   0  0  0  0  0  0  0  0  0  0  0  0
   -2.9537    1.2084   -0.7869 C   0  0  0  0  0  0  0  0  0  0  0  0
   -4.0053    2.0722   -0.0840 C   0  0  0  0  0  0  0  0  0  0  0  0
   -5.1884    1.1165    0.1472 C   0  0  0  0  0  0  0  0  0  0  0  0
   -4.7799   -0.3070    0.1084 C   0  0  0  0  0  0  0  0  0  0  0  0
   -3.4412   -0.5292    0.7689 C   0  0  0  0  0  0  0  0  0  0  0  0
   -5.7430    1.4272    1.4893 C   0  0  0  0  0  0  0  0  0  0  0  0
   -4.9969    1.3394    2.7010 N   0  0  0  0  0  0  0  0  0  0  0  0
   -6.9528    1.7988    1.6024 O   0  0  0  0  0  0  0  0  0  0  0  0
   -6.2067    1.4934   -0.8657 C   0  0  0  0  0  0  0  0  0  0  0  0
   -6.7372    2.7797   -0.7574 C   0  0  0  0  0  0  0  0  0  0  0  0
   -7.7126    3.1930   -1.6646 C   0  0  0  0  0  0  0  0  0  0  0  0
   -8.1268    2.3638   -2.6196 N   0  0  0  0  0  0  0  0  0  0  0  0
   -7.6351    1.1216   -2.7494 C   0  0  0  0  0  0  0  0  0  0  0  0
   -6.6686    0.6812   -1.8678 C   0  0  0  0  0  0  0  0  0  0  0  0
    1.7585   -1.2593    0.3031 C   0  0  0  0  0  0  0  0  0  0  0  0
    0.1328   -3.0636   -0.3238 C   0  0  0  0  0  0  0  0  0  0  0  0
   -0.8540   -3.9573    0.0963 C   0  0  0  0  0  0  0  0  0  0  0  0
   -1.2886   -4.9758   -0.7181 C   0  0  0  0  0  0  0  0  0  0  0  0
   -0.7599   -5.1490   -1.9841 C   0  0  0  0  0  0  0  0  0  0  0  0
   -1.3339   -6.4544   -3.0004 Cl  0  0  0  0  0  0  0  0  0  0  0  0
    0.2038   -4.2671   -2.3801 C   0  0  0  0  0  0  0  0  0  0  0  0
    0.8984   -4.4573   -3.9798 Cl  0  0  0  0  0  0  0  0  0  0  0  0
    0.6686   -3.2188   -1.5760 C   0  0  0  0  0  0  0  0  0  0  0  0
    7.6466    1.4635    3.0312 H   0  0  0  0  0  0  0  0  0  0  0  0
    8.5647    2.9656    2.9872 H   0  0  0  0  0  0  0  0  0  0  0  0
    6.7421    2.9764    3.0046 H   0  0  0  0  0  0  0  0  0  0  0  0
    5.7190    1.2027    2.4502 H   0  0  0  0  0  0  0  0  0  0  0  0
    3.6936   -0.2304   -1.0455 H   0  0  0  0  0  0  0  0  0  0  0  0
    4.3502   -0.9599   -3.0324 H   0  0  0  0  0  0  0  0  0  0  0  0
    4.3152    0.1687   -4.4319 H   0  0  0  0  0  0  0  0  0  0  0  0
    3.3420    0.5092   -2.9073 H   0  0  0  0  0  0  0  0  0  0  0  0
    7.8482    3.7867   -2.8972 H   0  0  0  0  0  0  0  0  0  0  0  0
    7.5367    4.2955   -1.1852 H   0  0  0  0  0  0  0  0  0  0  0  0
    6.1746    3.7731   -2.3097 H   0  0  0  0  0  0  0  0  0  0  0  0
    1.0448   -0.7983    3.0601 H   0  0  0  0  0  0  0  0  0  0  0  0
    2.3779   -1.9582    3.4091 H   0  0  0  0  0  0  0  0  0  0  0  0
    1.5760   -3.5256    1.7790 H   0  0  0  0  0  0  0  0  0  0  0  0
    0.0016   -2.9595    2.5452 H   0  0  0  0  0  0  0  0  0  0  0  0
   -0.3726   -0.3670    1.7272 H   0  0  0  0  0  0  0  0  0  0  0  0
   -1.4578   -1.7648    1.4330 H   0  0  0  0  0  0  0  0  0  0  0  0
   -0.5336    0.3641   -0.5975 H   0  0  0  0  0  0  0  0  0  0  0  0
   -1.5283   -1.0427   -1.0447 H   0  0  0  0  0  0  0  0  0  0  0  0
   -3.3657    0.6003   -1.5911 H   0  0  0  0  0  0  0  0  0  0  0  0
   -2.1630    1.9092   -1.1124 H   0  0  0  0  0  0  0  0  0  0  0  0
   -3.5985    2.3562    0.9186 H   0  0  0  0  0  0  0  0  0  0  0  0
   -4.2841    2.9552   -0.6562 H   0  0  0  0  0  0  0  0  0  0  0  0
   -5.5165   -0.8828    0.7337 H   0  0  0  0  0  0  0  0  0  0  0  0
   -4.6880   -0.7539   -0.9033 H   0  0  0  0  0  0  0  0  0  0  0  0
   -3.4788   -0.5302    1.8695 H   0  0  0  0  0  0  0  0  0  0  0  0
   -3.1121   -1.5710    0.4365 H   0  0  0  0  0  0  0  0  0  0  0  0
   -5.2208    0.5280    3.3187 H   0  0  0  0  0  0  0  0  0  0  0  0
   -4.2660    2.0271    2.9799 H   0  0  0  0  0  0  0  0  0  0  0  0
   -6.4182    3.4837   -0.0048 H   0  0  0  0  0  0  0  0  0  0  0  0
   -8.1301    4.1973   -1.5829 H   0  0  0  0  0  0  0  0  0  0  0  0
   -7.9978    0.4838   -3.5333 H   0  0  0  0  0  0  0  0  0  0  0  0
   -6.2764   -0.3066   -1.9621 H   0  0  0  0  0  0  0  0  0  0  0  0
    2.3923   -1.9896   -0.2850 H   0  0  0  0  0  0  0  0  0  0  0  0
    1.5289   -0.3440   -0.2847 H   0  0  0  0  0  0  0  0  0  0  0  0
   -1.2768   -3.8407    1.0700 H   0  0  0  0  0  0  0  0  0  0  0  0
   -2.0708   -5.6690   -0.3672 H   0  0  0  0  0  0  0  0  0  0  0  0
    1.4251   -2.5446   -1.9286 H   0  0  0  0  0  0  0  0  0  0  0  0
  1  2  1  0
  2  3  1  0
  3  4  2  0
  4  5  1  0
  5  6  2  0
  6  7  1  0
  7  8  1  0
  8  9  1  0
  7 10  2  0
 10 11  1  0
 11 12  1  0
  5 13  1  0
 13 14  2  0
 13 15  1  0
 15 16  1  0
 16 17  1  0
 17 18  1  0
 18 19  1  0
 19 20  1  0
 20 21  1  0
 21 22  1  0
 22 23  1  0
 23 24  1  0
 24 25  1  0
 25 26  1  0
 24 27  1  0
 27 28  1  0
 27 29  2  0
 24 30  1  0
 30 31  2  0
 31 32  1  0
 32 33  2  0
 33 34  1  0
 34 35  2  0
 18 36  1  0
 18 37  1  0
 37 38  2  0
 38 39  1  0
 39 40  2  0
 40 41  1  0
 40 42  1  0
 42 43  1  0
 42 44  2  0
 10  3  1  0
 36 15  1  0
 44 37  1  0
 26 21  1  0
 35 30  1  0
  1 45  1  0
  1 46  1  0
  1 47  1  0
  4 48  1  0
  6 49  1  0
  9 50  1  0
  9 51  1  0
  9 52  1  0
 12 53  1  0
 12 54  1  0
 12 55  1  0
 16 56  1  0
 16 57  1  0
 17 58  1  0
 17 59  1  0
 19 60  1  0
 19 61  1  0
 20 62  1  0
 20 63  1  0
 22 64  1  0
 22 65  1  0
 23 66  1  0
 23 67  1  0
 25 68  1  0
 25 69  1  0
 26 70  1  0
 26 71  1  0
 28 72  1  0
 28 73  1  0
 31 74  1  0
 32 75  1  0
 34 76  1  0
 35 77  1  0
 36 78  1  0
 36 79  1  0
 38 80  1  0
 39 81  1  0
 44 82  1  0
M  END
$$$$
[H]c1c(-c2c([H])c(N([H])C(=O)c3c([H])c([H])c([H])c(C(F)(F)F)c3[H])c([H])c([H])c2C([H])([H])[H])nc(N2C([H])([H])C([H])([H])OC([H])([H])C2([H])[H])nc1N1C([H])([H])C([H])([H])OC([H])([H])C1([H])[H]
     RDKit          3D

 66 70  0  0  0  0  0  0  0  0999 V2000
   -0.5741    3.5768    1.0137 C   0  0  0  0  0  0  0  0  0  0  0  0
    0.5146    2.6375    0.6967 C   0  0  0  0  0  0  0  0  0  0  0  0
    1.8355    3.0676    0.8933 C   0  0  0  0  0  0  0  0  0  0  0  0
    2.8852    2.2219    0.6121 C   0  0  0  0  0  0  0  0  0  0  0  0
    2.6678    0.9584    0.1410 C   0  0  0  0  0  0  0  0  0  0  0  0
    3.6403   -0.0095   -0.1860 N   0  0  0  0  0  0  0  0  0  0  0  0
    4.9901    0.0585    0.2203 C   0  0  0  0  0  0  0  0  0  0  0  0
    5.4480    0.9796    0.9150 O   0  0  0  0  0  0  0  0  0  0  0  0
    5.9512   -0.9935   -0.1754 C   0  0  0  0  0  0  0  0  0  0  0  0
    5.5960   -2.1806   -0.7400 C   0  0  0  0  0  0  0  0  0  0  0  0
    6.5618   -3.1061   -1.0973 C   0  0  0  0  0  0  0  0  0  0  0  0
    7.8895   -2.8463   -0.8896 C   0  0  0  0  0  0  0  0  0  0  0  0
    8.2673   -1.6680   -0.3271 C   0  0  0  0  0  0  0  0  0  0  0  0
    7.2965   -0.7446    0.0287 C   0  0  0  0  0  0  0  0  0  0  0  0
    9.7014   -1.3582   -0.0869 C   0  0  0  0  0  0  0  0  0  0  0  0
   10.4944   -1.8839   -1.0776 F   0  0  0  0  0  0  0  0  0  0  0  0
   10.0604   -1.9344    1.1116 F   0  0  0  0  0  0  0  0  0  0  0  0
    9.8333    0.0251   -0.0382 F   0  0  0  0  0  0  0  0  0  0  0  0
    1.3242    0.5726   -0.0393 C   0  0  0  0  0  0  0  0  0  0  0  0
    0.2484    1.3718    0.2236 C   0  0  0  0  0  0  0  0  0  0  0  0
   -1.1136    0.8819    0.0439 C   0  0  0  0  0  0  0  0  0  0  0  0
   -1.3774   -0.4796   -0.0865 C   0  0  0  0  0  0  0  0  0  0  0  0
   -2.6675   -0.9377   -0.2178 C   0  0  0  0  0  0  0  0  0  0  0  0
   -3.7112   -0.0619   -0.2223 N   0  0  0  0  0  0  0  0  0  0  0  0
   -3.4589    1.2559   -0.0973 C   0  0  0  0  0  0  0  0  0  0  0  0
   -2.2077    1.6581    0.0272 N   0  0  0  0  0  0  0  0  0  0  0  0
   -4.5847    2.1275   -0.1170 N   0  0  0  0  0  0  0  0  0  0  0  0
   -5.9387    1.7185    0.1453 C   0  0  0  0  0  0  0  0  0  0  0  0
   -6.7402    2.9825    0.3726 C   0  0  0  0  0  0  0  0  0  0  0  0
   -6.0315    3.7943    1.2683 O   0  0  0  0  0  0  0  0  0  0  0  0
   -4.9317    4.3934    0.6348 C   0  0  0  0  0  0  0  0  0  0  0  0
   -4.3743    3.5299   -0.4557 C   0  0  0  0  0  0  0  0  0  0  0  0
   -3.0057   -2.3277   -0.3711 N   0  0  0  0  0  0  0  0  0  0  0  0
   -2.0232   -3.3522   -0.6472 C   0  0  0  0  0  0  0  0  0  0  0  0
   -2.4067   -4.5290    0.2524 C   0  0  0  0  0  0  0  0  0  0  0  0
   -3.6448   -5.0301   -0.0294 O   0  0  0  0  0  0  0  0  0  0  0  0
   -4.6798   -4.1351    0.0025 C   0  0  0  0  0  0  0  0  0  0  0  0
   -4.3853   -2.7278   -0.2383 C   0  0  0  0  0  0  0  0  0  0  0  0
   -0.1042    4.4991    1.4804 H   0  0  0  0  0  0  0  0  0  0  0  0
   -1.0762    3.9629    0.1104 H   0  0  0  0  0  0  0  0  0  0  0  0
   -1.2555    3.2133    1.8081 H   0  0  0  0  0  0  0  0  0  0  0  0
    2.0592    4.0549    1.2660 H   0  0  0  0  0  0  0  0  0  0  0  0
    3.8623    2.5921    0.7657 H   0  0  0  0  0  0  0  0  0  0  0  0
    3.3486   -0.8496   -0.7860 H   0  0  0  0  0  0  0  0  0  0  0  0
    4.5642   -2.4019   -0.9072 H   0  0  0  0  0  0  0  0  0  0  0  0
    6.2304   -4.0187   -1.5370 H   0  0  0  0  0  0  0  0  0  0  0  0
    8.6612   -3.5558   -1.1589 H   0  0  0  0  0  0  0  0  0  0  0  0
    7.6426    0.1780    0.4738 H   0  0  0  0  0  0  0  0  0  0  0  0
    1.1179   -0.4165   -0.4164 H   0  0  0  0  0  0  0  0  0  0  0  0
   -0.6123   -1.2042   -0.0828 H   0  0  0  0  0  0  0  0  0  0  0  0
   -5.9457    1.0818    1.0359 H   0  0  0  0  0  0  0  0  0  0  0  0
   -6.3489    1.2115   -0.7574 H   0  0  0  0  0  0  0  0  0  0  0  0
   -6.8115    3.5037   -0.6069 H   0  0  0  0  0  0  0  0  0  0  0  0
   -7.7305    2.7741    0.7990 H   0  0  0  0  0  0  0  0  0  0  0  0
   -4.1472    4.5187    1.4041 H   0  0  0  0  0  0  0  0  0  0  0  0
   -5.2317    5.3864    0.2896 H   0  0  0  0  0  0  0  0  0  0  0  0
   -3.3160    3.7822   -0.5988 H   0  0  0  0  0  0  0  0  0  0  0  0
   -4.9278    3.7017   -1.4246 H   0  0  0  0  0  0  0  0  0  0  0  0
   -2.1644   -3.6292   -1.7198 H   0  0  0  0  0  0  0  0  0  0  0  0
   -0.9894   -3.0888   -0.4404 H   0  0  0  0  0  0  0  0  0  0  0  0
   -2.1987   -4.2737    1.2875 H   0  0  0  0  0  0  0  0  0  0  0  0
   -1.6508   -5.3257   -0.0187 H   0  0  0  0  0  0  0  0  0  0  0  0
   -5.1510   -4.2511    1.0167 H   0  0  0  0  0  0  0  0  0  0  0  0
   -5.4650   -4.5057   -0.7075 H   0  0  0  0  0  0  0  0  0  0  0  0
   -4.8987   -2.3738   -1.1692 H   0  0  0  0  0  0  0  0  0  0  0  0
   -4.8096   -2.0714    0.5779 H   0  0  0  0  0  0  0  0  0  0  0  0
  1  2  1  0
  2  3  2  0
  3  4  1  0
  4  5  2  0
  5  6  1  0
  6  7  1  0
  7  8  2  0
  7  9  1  0
  9 10  2  0
 10 11  1  0
 11 12  2  0
 12 13  1  0
 13 14  2  0
 13 15  1  0
 15 16  1  0
 15 17  1  0
 15 18  1  0
  5 19  1  0
 19 20  2  0
 20 21  1  0
 21 22  2  0
 22 23  1  0
 23 24  2  0
 24 25  1  0
 25 26  2  0
 25 27  1  0
 27 28  1  0
 28 29  1  0
 29 30  1  0
 30 31  1  0
 31 32  1  0
 23 33  1  0
 33 34  1  0
 34 35  1  0
 35 36  1  0
 36 37  1  0
 37 38  1  0
 20  2  1  0
 26 21  1  0
 32 27  1  0
 38 33  1  0
 14  9  1  0
  1 39  1  0
  1 40  1  0
  1 41  1  0
  3 42  1  0
  4 43  1  0
  6 44  1  0
 10 45  1  0
 11 46  1  0
 12 47  1  0
 14 48  1  0
 19 49  1  0
 22 50  1  0
 28 51  1  0
 28 52  1  0
 29 53  1  0
 29 54  1  0
 31 55  1  0
 31 56  1  0
 32 57  1  0
 32 58  1  0
 34 59  1  0
 34 60  1  0
 35 61  1  0
 35 62  1  0
 37 63  1  0
 37 64  1  0
 38 65  1  0
 38 66  1  0
M  END
$$$$
[H]c1nc(N([H])[H])c(-c2c([H])c([H])c(C(=O)N([H])[C@@]([H])(C([H])([H])C([H])(C([H])([H])[H])C([H])([H])[H])C(C([H])([H])[H])(C([H])([H])[H])C([H])([H])[H])c([H])c2[H])nc1-c1c([H])c([H])nc(N2C([H])([H])C([H])([H])OC([H])([H])C2([H])[H])c1[H]
     RDKit          3D

 75 78  0  0  0  0  0  0  0  0999 V2000
   -4.5570   -2.6780   -0.2279 C   0  0  0  0  0  0  0  0  0  0  0  0
   -6.0174   -2.4958   -0.4428 C   0  0  0  0  0  0  0  0  0  0  0  0
   -6.7489   -3.7396    0.0445 C   0  0  0  0  0  0  0  0  0  0  0  0
   -6.6104   -1.2608    0.1466 C   0  0  0  0  0  0  0  0  0  0  0  0
   -6.0882    0.0414   -0.3382 C   0  0  2  0  0  0  0  0  0  0  0  0
   -4.6995    0.3050   -0.1399 N   0  0  0  0  0  0  0  0  0  0  0  0
   -3.8041    0.7077   -1.1496 C   0  0  0  0  0  0  0  0  0  0  0  0
   -4.2248    0.8585   -2.3175 O   0  0  0  0  0  0  0  0  0  0  0  0
   -2.4022    0.9570   -0.8792 C   0  0  0  0  0  0  0  0  0  0  0  0
   -1.6815    1.9118   -1.5744 C   0  0  0  0  0  0  0  0  0  0  0  0
   -0.3607    2.1514   -1.3479 C   0  0  0  0  0  0  0  0  0  0  0  0
    0.3213    1.4442   -0.4060 C   0  0  0  0  0  0  0  0  0  0  0  0
   -0.3557    0.4728    0.3210 C   0  0  0  0  0  0  0  0  0  0  0  0
   -1.6980    0.2363    0.0841 C   0  0  0  0  0  0  0  0  0  0  0  0
    1.7499    1.7398   -0.1680 C   0  0  0  0  0  0  0  0  0  0  0  0
    2.6111    0.7085   -0.1630 N   0  0  0  0  0  0  0  0  0  0  0  0
    3.9519    0.8605    0.0527 C   0  0  0  0  0  0  0  0  0  0  0  0
    4.3796    2.1480    0.2691 C   0  0  0  0  0  0  0  0  0  0  0  0
    3.4987    3.1934    0.2630 N   0  0  0  0  0  0  0  0  0  0  0  0
    2.2012    3.0237    0.0511 C   0  0  0  0  0  0  0  0  0  0  0  0
    1.3058    4.1403    0.0578 N   0  0  0  0  0  0  0  0  0  0  0  0
    4.8501   -0.2794    0.0271 C   0  0  0  0  0  0  0  0  0  0  0  0
    4.2958   -1.5342   -0.2250 C   0  0  0  0  0  0  0  0  0  0  0  0
    5.1372   -2.6435   -0.2741 C   0  0  0  0  0  0  0  0  0  0  0  0
    6.4587   -2.4968   -0.0798 N   0  0  0  0  0  0  0  0  0  0  0  0
    7.0031   -1.2718    0.1672 C   0  0  0  0  0  0  0  0  0  0  0  0
    6.1860   -0.1530    0.2204 C   0  0  0  0  0  0  0  0  0  0  0  0
    8.3937   -1.1433    0.3593 N   0  0  0  0  0  0  0  0  0  0  0  0
    9.2799   -2.2930    0.2588 C   0  0  0  0  0  0  0  0  0  0  0  0
   10.3200   -2.0672    1.3675 C   0  0  0  0  0  0  0  0  0  0  0  0
   11.0940   -0.9715    1.0865 O   0  0  0  0  0  0  0  0  0  0  0  0
   10.4678    0.0652    0.4458 C   0  0  0  0  0  0  0  0  0  0  0  0
    8.9691    0.1327    0.6655 C   0  0  0  0  0  0  0  0  0  0  0  0
   -6.9582    1.1990    0.1528 C   0  0  0  0  0  0  0  0  0  0  0  0
   -6.3846    2.4817   -0.3692 C   0  0  0  0  0  0  0  0  0  0  0  0
   -7.1145    1.2383    1.6349 C   0  0  0  0  0  0  0  0  0  0  0  0
   -8.3326    1.0166   -0.4696 C   0  0  0  0  0  0  0  0  0  0  0  0
   -4.1282   -2.1178    0.6155 H   0  0  0  0  0  0  0  0  0  0  0  0
   -4.0138   -2.3822   -1.1540 H   0  0  0  0  0  0  0  0  0  0  0  0
   -4.3561   -3.7806   -0.1245 H   0  0  0  0  0  0  0  0  0  0  0  0
   -6.1921   -2.4455   -1.5650 H   0  0  0  0  0  0  0  0  0  0  0  0
   -6.5018   -4.5947   -0.5843 H   0  0  0  0  0  0  0  0  0  0  0  0
   -7.8274   -3.5205   -0.0613 H   0  0  0  0  0  0  0  0  0  0  0  0
   -6.4517   -3.9081    1.0846 H   0  0  0  0  0  0  0  0  0  0  0  0
   -6.5152   -1.3271    1.2670 H   0  0  0  0  0  0  0  0  0  0  0  0
   -7.7184   -1.3230   -0.0322 H   0  0  0  0  0  0  0  0  0  0  0  0
   -6.2393    0.0774   -1.4643 H   0  0  0  0  0  0  0  0  0  0  0  0
   -4.2923    0.2051    0.8405 H   0  0  0  0  0  0  0  0  0  0  0  0
   -2.2190    2.4684   -2.3186 H   0  0  0  0  0  0  0  0  0  0  0  0
    0.2068    2.9095   -1.9067 H   0  0  0  0  0  0  0  0  0  0  0  0
    0.1773   -0.0979    1.0763 H   0  0  0  0  0  0  0  0  0  0  0  0
   -2.2374   -0.5191    0.6470 H   0  0  0  0  0  0  0  0  0  0  0  0
    5.4176    2.3691    0.4478 H   0  0  0  0  0  0  0  0  0  0  0  0
    1.6658    5.0851   -0.2523 H   0  0  0  0  0  0  0  0  0  0  0  0
    0.3234    4.0965    0.3462 H   0  0  0  0  0  0  0  0  0  0  0  0
    3.2418   -1.6995   -0.3879 H   0  0  0  0  0  0  0  0  0  0  0  0
    4.7462   -3.6408   -0.4696 H   0  0  0  0  0  0  0  0  0  0  0  0
    6.5987    0.8090    0.4149 H   0  0  0  0  0  0  0  0  0  0  0  0
    9.7748   -2.3130   -0.7257 H   0  0  0  0  0  0  0  0  0  0  0  0
    8.7411   -3.2170    0.4700 H   0  0  0  0  0  0  0  0  0  0  0  0
    9.7599   -1.9718    2.3366 H   0  0  0  0  0  0  0  0  0  0  0  0
   10.9490   -2.9658    1.4128 H   0  0  0  0  0  0  0  0  0  0  0  0
   10.6187   -0.0625   -0.6549 H   0  0  0  0  0  0  0  0  0  0  0  0
   10.8939    1.0634    0.6820 H   0  0  0  0  0  0  0  0  0  0  0  0
    8.5552    0.9450   -0.0009 H   0  0  0  0  0  0  0  0  0  0  0  0
    8.7340    0.4326    1.7098 H   0  0  0  0  0  0  0  0  0  0  0  0
   -5.3170    2.6406   -0.0947 H   0  0  0  0  0  0  0  0  0  0  0  0
   -6.9156    3.3714    0.0755 H   0  0  0  0  0  0  0  0  0  0  0  0
   -6.4922    2.5993   -1.4692 H   0  0  0  0  0  0  0  0  0  0  0  0
   -6.1586    0.9227    2.1073 H   0  0  0  0  0  0  0  0  0  0  0  0
   -7.9623    0.6150    1.9873 H   0  0  0  0  0  0  0  0  0  0  0  0
   -7.2404    2.3210    1.9311 H   0  0  0  0  0  0  0  0  0  0  0  0
   -8.9464    0.3785    0.2177 H   0  0  0  0  0  0  0  0  0  0  0  0
   -8.2926    0.5593   -1.4773 H   0  0  0  0  0  0  0  0  0  0  0  0
   -8.8229    2.0120   -0.4587 H   0  0  0  0  0  0  0  0  0  0  0  0
  1  2  1  0
  2  3  1  0
  2  4  1  0
  4  5  1  0
  5  6  1  0
  6  7  1  0
  7  8  2  0
  7  9  1  0
  9 10  2  0
 10 11  1  0
 11 12  2  0
 12 13  1  0
 13 14  2  0
 12 15  1  0
 15 16  2  0
 16 17  1  0
 17 18  2  0
 18 19  1  0
 19 20  2  0
 20 21  1  0
 17 22  1  0
 22 23  2  0
 23 24  1  0
 24 25  2  0
 25 26  1  0
 26 27  2  0
 26 28  1  0
 28 29  1  0
 29 30  1  0
 30 31  1  0
 31 32  1  0
 32 33  1  0
  5 34  1  0
 34 35  1  0
 34 36  1  0
 34 37  1  0
 14  9  1  0
 20 15  1  0
 27 22  1  0
 33 28  1  0
  1 38  1  0
  1 39  1  0
  1 40  1  0
  2 41  1  0
  3 42  1  0
  3 43  1  0
  3 44  1  0
  4 45  1  0
  4 46  1  0
  5 47  1  6
  6 48  1  0
 10 49  1  0
 11 50  1  0
 13 51  1  0
 14 52  1  0
 18 53  1  0
 21 54  1  0
 21 55  1  0
 23 56  1  0
 24 57  1  0
 27 58  1  0
 29 59  1  0
 29 60  1  0
 30 61  1  0
 30 62  1  0
 32 63  1  0
 32 64  1  0
 33 65  1  0
 33 66  1  0
 35 67  1  0
 35 68  1  0
 35 69  1  0
 36 70  1  0
 36 71  1  0
 36 72  1  0
 37 73  1  0
 37 74  1  0
 37 75  1  0
M  END
$$$$
[H]OC(=O)C([H])([H])N(C([H])([H])c1c([H])c([H])c([N+](=O)[O-])c([H])c1[H])S(=O)(=O)c1c([H])c([H])c(Cl)c([H])c1[H]
     RDKit          3D

 38 39  0  0  0  0  0  0  0  0999 V2000
    0.4125    3.3808    3.5791 O   0  0  0  0  0  0  0  0  0  0  0  0
    0.0015    2.8527    2.3641 C   0  0  0  0  0  0  0  0  0  0  0  0
   -0.5793    3.5919    1.5610 O   0  0  0  0  0  0  0  0  0  0  0  0
    0.2751    1.4333    2.0829 C   0  0  0  0  0  0  0  0  0  0  0  0
   -0.1969    1.0238    0.7762 N   0  0  0  0  0  0  0  0  0  0  0  0
   -0.6786   -0.3210    0.8408 C   0  0  0  0  0  0  0  0  0  0  0  0
   -1.8059   -0.6216   -0.0348 C   0  0  0  0  0  0  0  0  0  0  0  0
   -2.2449   -1.9207   -0.1598 C   0  0  0  0  0  0  0  0  0  0  0  0
   -3.2915   -2.2939   -0.9520 C   0  0  0  0  0  0  0  0  0  0  0  0
   -3.9800   -1.3412   -1.6907 C   0  0  0  0  0  0  0  0  0  0  0  0
   -3.5470   -0.0261   -1.5735 C   0  0  0  0  0  0  0  0  0  0  0  0
   -2.4859    0.3274   -0.7657 C   0  0  0  0  0  0  0  0  0  0  0  0
   -5.0728   -1.6930   -2.5248 N   0  0  0  0  0  0  0  0  0  0  0  0
   -5.7297   -0.7360   -3.2382 O   0  0  0  0  0  0  0  0  0  0  0  0
   -5.4321   -2.8715   -2.6062 O   0  0  0  0  0  0  0  0  0  0  0  0
    1.0641    1.2491   -0.3688 S   0  0  0  0  0  0  0  0  0  0  0  0
    1.3673    2.7426   -0.3890 O   0  0  0  0  0  0  0  0  0  0  0  0
    0.4732    0.9676   -1.7429 O   0  0  0  0  0  0  0  0  0  0  0  0
    2.4717    0.3222   -0.0627 C   0  0  0  0  0  0  0  0  0  0  0  0
    2.6066   -0.9453   -0.5734 C   0  0  0  0  0  0  0  0  0  0  0  0
    3.7503   -1.7095   -0.3331 C   0  0  0  0  0  0  0  0  0  0  0  0
    4.7714   -1.2062    0.4243 C   0  0  0  0  0  0  0  0  0  0  0  0
    6.2275   -2.1770    0.7312 Cl  0  0  0  0  0  0  0  0  0  0  0  0
    4.6486    0.0612    0.9411 C   0  0  0  0  0  0  0  0  0  0  0  0
    3.5063    0.8112    0.6950 C   0  0  0  0  0  0  0  0  0  0  0  0
    0.1634    4.3096    3.8989 H   0  0  0  0  0  0  0  0  0  0  0  0
   -0.1801    0.7844    2.8907 H   0  0  0  0  0  0  0  0  0  0  0  0
    1.3693    1.2860    2.2166 H   0  0  0  0  0  0  0  0  0  0  0  0
   -1.0122   -0.5486    1.8962 H   0  0  0  0  0  0  0  0  0  0  0  0
    0.1859   -0.9959    0.6722 H   0  0  0  0  0  0  0  0  0  0  0  0
   -1.7397   -2.7077    0.3982 H   0  0  0  0  0  0  0  0  0  0  0  0
   -3.6358   -3.3286   -1.0472 H   0  0  0  0  0  0  0  0  0  0  0  0
   -4.0913    0.7284   -2.1576 H   0  0  0  0  0  0  0  0  0  0  0  0
   -2.1966    1.3787   -0.7162 H   0  0  0  0  0  0  0  0  0  0  0  0
    1.8269   -1.3850   -1.1770 H   0  0  0  0  0  0  0  0  0  0  0  0
    3.8505   -2.7061   -0.7376 H   0  0  0  0  0  0  0  0  0  0  0  0
    5.4476    0.4668    1.5390 H   0  0  0  0  0  0  0  0  0  0  0  0
    3.4807    1.8172    1.1423 H   0  0  0  0  0  0  0  0  0  0  0  0
  1  2  1  0
  2  3  2  0
  2  4  1  0
  4  5  1  0
  5  6  1  0
  6  7  1  0
  7  8  2  0
  8  9  1  0
  9 10  2  0
 10 11  1  0
 11 12  2  0
 10 13  1  0
 13 14  1  0
 13 15  2  0
  5 16  1  0
 16 17  2  0
 16 18  2  0
 16 19  1  0
 19 20  2  0
 20 21  1  0
 21 22  2  0
 22 23  1  0
 22 24  1  0
 24 25  2  0
 12  7  1  0
 25 19  1  0
  1 26  1  0
  4 27  1  0
  4 28  1  0
  6 29  1  0
  6 30  1  0
  8 31  1  0
  9 32  1  0
 11 33  1  0
 12 34  1  0
 20 35  1  0
 21 36  1  0
 24 37  1  0
 25 38  1  0
M  CHG  2  13   1  14  -1
M  END
$$$$
[H]c1c([H])c(N(C([H])([H])C([H])([H])[H])C([H])([H])C([H])([H])C([H])([H])[H])c([H])c([H])c1-c1c([H])c2c(n1[H])C1(C(=O)N(C([H])([H])C([H])([H])C([H])([H])[H])C2=O)C([H])([H])C([H])([H])N(C([H])([H])[H])C([H])([H])C1([H])[H]
     RDKit          3D

 68 71  0  0  0  0  0  0  0  0999 V2000
    8.2788    2.0153    0.4862 C   0  0  0  0  0  0  0  0  0  0  0  0
    7.2041    1.6147    1.4214 C   0  0  0  0  0  0  0  0  0  0  0  0
    6.6300    0.2500    1.2462 C   0  0  0  0  0  0  0  0  0  0  0  0
    6.0062    0.0507   -0.0040 N   0  0  0  0  0  0  0  0  0  0  0  0
    6.6876   -0.0434   -1.2691 C   0  0  0  0  0  0  0  0  0  0  0  0
    7.5403   -1.3064   -1.3448 C   0  0  0  0  0  0  0  0  0  0  0  0
    4.5616   -0.0816   -0.0299 C   0  0  0  0  0  0  0  0  0  0  0  0
    3.9947   -1.3280   -0.0092 C   0  0  0  0  0  0  0  0  0  0  0  0
    2.6237   -1.4816   -0.0216 C   0  0  0  0  0  0  0  0  0  0  0  0
    1.7606   -0.3808   -0.0552 C   0  0  0  0  0  0  0  0  0  0  0  0
    2.3347    0.8591   -0.0757 C   0  0  0  0  0  0  0  0  0  0  0  0
    3.7248    1.0094   -0.0632 C   0  0  0  0  0  0  0  0  0  0  0  0
    0.3067   -0.5914   -0.0625 C   0  0  0  0  0  0  0  0  0  0  0  0
   -0.3807   -1.7811   -0.0443 C   0  0  0  0  0  0  0  0  0  0  0  0
   -1.7561   -1.5160   -0.0565 C   0  0  0  0  0  0  0  0  0  0  0  0
   -1.8629   -0.1601   -0.0874 C   0  0  0  0  0  0  0  0  0  0  0  0
   -0.6083    0.3746   -0.0877 N   0  0  0  0  0  0  0  0  0  0  0  0
   -3.2078    0.4736   -0.2224 C   0  0  0  0  0  0  0  0  0  0  0  0
   -3.2867    1.7530    0.5701 C   0  0  0  0  0  0  0  0  0  0  0  0
   -3.5258    2.9727   -0.2574 C   0  0  0  0  0  0  0  0  0  0  0  0
   -4.6016    2.9133   -1.1820 N   0  0  0  0  0  0  0  0  0  0  0  0
   -5.8467    3.4123   -0.6931 C   0  0  0  0  0  0  0  0  0  0  0  0
   -4.6552    1.6496   -1.8425 C   0  0  0  0  0  0  0  0  0  0  0  0
   -3.4188    0.8337   -1.6938 C   0  0  0  0  0  0  0  0  0  0  0  0
   -4.2798   -0.4228    0.1730 C   0  0  0  0  0  0  0  0  0  0  0  0
   -5.4270    0.0507    0.5717 O   0  0  0  0  0  0  0  0  0  0  0  0
   -4.1981   -1.8409    0.1722 N   0  0  0  0  0  0  0  0  0  0  0  0
   -5.4098   -2.6407    0.2683 C   0  0  0  0  0  0  0  0  0  0  0  0
   -5.7941   -2.9322    1.6972 C   0  0  0  0  0  0  0  0  0  0  0  0
   -7.0615   -3.7571    1.6805 C   0  0  0  0  0  0  0  0  0  0  0  0
   -2.9105   -2.4255    0.0635 C   0  0  0  0  0  0  0  0  0  0  0  0
   -2.7576   -3.6536    0.0683 O   0  0  0  0  0  0  0  0  0  0  0  0
    9.0076    2.6602    1.0487 H   0  0  0  0  0  0  0  0  0  0  0  0
    7.9520    2.6608   -0.3604 H   0  0  0  0  0  0  0  0  0  0  0  0
    8.8331    1.1631    0.0969 H   0  0  0  0  0  0  0  0  0  0  0  0
    7.6384    1.6646    2.4712 H   0  0  0  0  0  0  0  0  0  0  0  0
    6.3574    2.3530    1.4299 H   0  0  0  0  0  0  0  0  0  0  0  0
    7.4758   -0.4866    1.3832 H   0  0  0  0  0  0  0  0  0  0  0  0
    5.8825    0.0747    2.0822 H   0  0  0  0  0  0  0  0  0  0  0  0
    7.2298    0.8223   -1.5968 H   0  0  0  0  0  0  0  0  0  0  0  0
    5.9142   -0.2197   -2.0949 H   0  0  0  0  0  0  0  0  0  0  0  0
    6.9044   -2.1711   -1.0473 H   0  0  0  0  0  0  0  0  0  0  0  0
    7.8004   -1.4500   -2.4045 H   0  0  0  0  0  0  0  0  0  0  0  0
    8.3807   -1.1941   -0.6556 H   0  0  0  0  0  0  0  0  0  0  0  0
    4.6346   -2.2125    0.0176 H   0  0  0  0  0  0  0  0  0  0  0  0
    2.1411   -2.4479   -0.0078 H   0  0  0  0  0  0  0  0  0  0  0  0
    1.7264    1.7381   -0.1030 H   0  0  0  0  0  0  0  0  0  0  0  0
    4.1953    1.9843   -0.0796 H   0  0  0  0  0  0  0  0  0  0  0  0
    0.0624   -2.7481   -0.0236 H   0  0  0  0  0  0  0  0  0  0  0  0
   -0.4218    1.3996   -0.1036 H   0  0  0  0  0  0  0  0  0  0  0  0
   -4.1230    1.6814    1.3305 H   0  0  0  0  0  0  0  0  0  0  0  0
   -2.3744    1.9367    1.1766 H   0  0  0  0  0  0  0  0  0  0  0  0
   -3.7450    3.8227    0.4582 H   0  0  0  0  0  0  0  0  0  0  0  0
   -2.5797    3.2922   -0.7527 H   0  0  0  0  0  0  0  0  0  0  0  0
   -6.0628    3.0672    0.3376 H   0  0  0  0  0  0  0  0  0  0  0  0
   -6.6917    3.0410   -1.3164 H   0  0  0  0  0  0  0  0  0  0  0  0
   -5.7874    4.5271   -0.7191 H   0  0  0  0  0  0  0  0  0  0  0  0
   -5.5419    1.0421   -1.6071 H   0  0  0  0  0  0  0  0  0  0  0  0
   -4.7603    1.8183   -2.9720 H   0  0  0  0  0  0  0  0  0  0  0  0
   -2.5189    1.3247   -2.1266 H   0  0  0  0  0  0  0  0  0  0  0  0
   -3.5685   -0.1027   -2.3002 H   0  0  0  0  0  0  0  0  0  0  0  0
   -5.2836   -3.5801   -0.2871 H   0  0  0  0  0  0  0  0  0  0  0  0
   -6.2243   -2.0668   -0.1907 H   0  0  0  0  0  0  0  0  0  0  0  0
   -4.9875   -3.4335    2.2697 H   0  0  0  0  0  0  0  0  0  0  0  0
   -6.0089   -1.9897    2.2510 H   0  0  0  0  0  0  0  0  0  0  0  0
   -6.9432   -4.5598    2.4414 H   0  0  0  0  0  0  0  0  0  0  0  0
   -7.2684   -4.1759    0.6732 H   0  0  0  0  0  0  0  0  0  0  0  0
   -7.9095   -3.1248    1.9647 H   0  0  0  0  0  0  0  0  0  0  0  0
  1  2  1  0
  2  3  1  0
  3  4  1  0
  4  5  1  0
  5  6  1  0
  4  7  1  0
  7  8  2  0
  8  9  1  0
  9 10  2  0
 10 11  1  0
 11 12  2  0
 10 13  1  0
 13 14  2  0
 14 15  1  0
 15 16  2  0
 16 17  1  0
 16 18  1  0
 18 19  1  0
 19 20  1  0
 20 21  1  0
 21 22  1  0
 21 23  1  0
 23 24  1  0
 18 25  1  0
 25 26  2  0
 25 27  1  0
 27 28  1  0
 28 29  1  0
 29 30  1  0
 27 31  1  0
 31 32  2  0
 12  7  1  0
 17 13  1  0
 24 18  1  0
 31 15  1  0
  1 33  1  0
  1 34  1  0
  1 35  1  0
  2 36  1  0
  2 37  1  0
  3 38  1  0
  3 39  1  0
  5 40  1  0
  5 41  1  0
  6 42  1  0
  6 43  1  0
  6 44  1  0
  8 45  1  0
  9 46  1  0
 11 47  1  0
 12 48  1  0
 14 49  1  0
 17 50  1  0
 19 51  1  0
 19 52  1  0
 20 53  1  0
 20 54  1  0
 22 55  1  0
 22 56  1  0
 22 57  1  0
 23 58  1  0
 23 59  1  0
 24 60  1  0
 24 61  1  0
 28 62  1  0
 28 63  1  0
 29 64  1  0
 29 65  1  0
 30 66  1  0
 30 67  1  0
 30 68  1  0
M  END
$$$$
[H]c1nc([H])c([H])c(-c2c([H])c([H])nc(C#Cc3c([H])c([H])c([H])c([H])c3[H])c2[H])c1[H]
     RDKit          3D

 32 34  0  0  0  0  0  0  0  0999 V2000
   -0.2472   -2.5602    0.0378 N   0  0  0  0  0  0  0  0  0  0  0  0
   -1.4550   -3.1229    0.0147 C   0  0  0  0  0  0  0  0  0  0  0  0
   -2.5484   -2.3042   -0.0258 C   0  0  0  0  0  0  0  0  0  0  0  0
   -2.3961   -0.9155   -0.0423 C   0  0  0  0  0  0  0  0  0  0  0  0
   -3.5767   -0.0596   -0.0887 C   0  0  0  0  0  0  0  0  0  0  0  0
   -4.6927   -0.5364   -0.7740 C   0  0  0  0  0  0  0  0  0  0  0  0
   -5.8508    0.2391   -0.8416 C   0  0  0  0  0  0  0  0  0  0  0  0
   -5.8976    1.4496   -0.2472 N   0  0  0  0  0  0  0  0  0  0  0  0
   -4.8227    1.8850    0.4006 C   0  0  0  0  0  0  0  0  0  0  0  0
   -3.6279    1.1656    0.5114 C   0  0  0  0  0  0  0  0  0  0  0  0
   -1.1348   -0.3669   -0.0179 C   0  0  0  0  0  0  0  0  0  0  0  0
   -0.0525   -1.2154    0.0228 C   0  0  0  0  0  0  0  0  0  0  0  0
    1.2673   -0.6491    0.0449 C   0  0  0  0  0  0  0  0  0  0  0  0
    2.4005   -0.1836    0.0523 C   0  0  0  0  0  0  0  0  0  0  0  0
    3.7355    0.3391    0.0551 C   0  0  0  0  0  0  0  0  0  0  0  0
    4.0835    1.3207   -0.8481 C   0  0  0  0  0  0  0  0  0  0  0  0
    5.3668    1.8291   -0.8466 C   0  0  0  0  0  0  0  0  0  0  0  0
    6.3494    1.3937    0.0382 C   0  0  0  0  0  0  0  0  0  0  0  0
    5.9900    0.4153    0.9327 C   0  0  0  0  0  0  0  0  0  0  0  0
    4.7175   -0.1016    0.9449 C   0  0  0  0  0  0  0  0  0  0  0  0
   -1.6416   -4.1925    0.0249 H   0  0  0  0  0  0  0  0  0  0  0  0
   -3.5746   -2.6904   -0.0440 H   0  0  0  0  0  0  0  0  0  0  0  0
   -4.6757   -1.5012   -1.2595 H   0  0  0  0  0  0  0  0  0  0  0  0
   -6.7214   -0.1222   -1.3693 H   0  0  0  0  0  0  0  0  0  0  0  0
   -4.8842    2.8683    0.8760 H   0  0  0  0  0  0  0  0  0  0  0  0
   -2.7761    1.5508    1.0446 H   0  0  0  0  0  0  0  0  0  0  0  0
   -0.9729    0.7216   -0.0295 H   0  0  0  0  0  0  0  0  0  0  0  0
    3.4015    1.7335   -1.5820 H   0  0  0  0  0  0  0  0  0  0  0  0
    5.6952    2.6071   -1.5422 H   0  0  0  0  0  0  0  0  0  0  0  0
    7.3438    1.8171    0.0080 H   0  0  0  0  0  0  0  0  0  0  0  0
    6.7284    0.0579    1.6284 H   0  0  0  0  0  0  0  0  0  0  0  0
    4.4693   -0.8722    1.6650 H   0  0  0  0  0  0  0  0  0  0  0  0
  1  2  2  0
  2  3  1  0
  3  4  2  0
  4  5  1  0
  5  6  2  0
  6  7  1  0
  7  8  2  0
  8  9  1  0
  9 10  2  0
  4 11  1  0
 11 12  2  0
 12 13  1  0
 13 14  3  0
 14 15  1  0
 15 16  2  0
 16 17  1  0
 17 18  2  0
 18 19  1  0
 19 20  2  0
 12  1  1  0
 20 15  1  0
 10  5  1  0
  2 21  1  0
  3 22  1  0
  6 23  1  0
  7 24  1  0
  9 25  1  0
 10 26  1  0
 11 27  1  0
 16 28  1  0
 17 29  1  0
 18 30  1  0
 19 31  1  0
 20 32  1  0
M  END
$$$$
[H]c1c([H])c([H])c2c(c1[H])c1c3c(c4c5c([H])c([H])c([H])c([H])c5n5c4c1n2[C@@]1(C([H])([H])[H])O[C@]5([H])C([H])([H])[C@@]([H])(N([H])C([H])([H])[H])[C@@]1([H])OC([H])([H])[H])C(=O)N([H])C3([H])[H]
     RDKit          3D

 61 68  0  0  0  0  0  0  0  0999 V2000
   -3.3415   -2.0929    0.8927 C   0  0  0  0  0  0  0  0  0  0  0  0
   -2.7520   -0.8244    0.5060 N   0  0  0  0  0  0  0  0  0  0  0  0
   -2.5947   -0.7699   -0.9652 C   0  0  2  0  0  0  0  0  0  0  0  0
   -1.6635   -1.8336   -1.3456 C   0  0  0  0  0  0  0  0  0  0  0  0
   -0.4098   -1.3263   -1.9401 C   0  0  1  0  0  0  0  0  0  0  0  0
   -0.2904   -0.0961   -2.3609 O   0  0  0  0  0  0  0  0  0  0  0  0
   -0.9141    0.9817   -1.7381 C   0  0  1  0  0  0  0  0  0  0  0  0
   -0.8729    2.0231   -2.8643 C   0  0  0  0  0  0  0  0  0  0  0  0
   -2.2914    0.6326   -1.4119 C   0  0  2  0  0  0  0  0  0  0  0  0
   -2.9229    1.4324   -0.4622 O   0  0  0  0  0  0  0  0  0  0  0  0
   -4.0664    2.0564   -0.9455 C   0  0  0  0  0  0  0  0  0  0  0  0
   -0.0747    1.3904   -0.5981 N   0  0  0  0  0  0  0  0  0  0  0  0
    0.0066    2.5943   -0.0347 C   0  0  0  0  0  0  0  0  0  0  0  0
   -0.6403    3.7755   -0.2701 C   0  0  0  0  0  0  0  0  0  0  0  0
   -0.3753    4.9057    0.4704 C   0  0  0  0  0  0  0  0  0  0  0  0
    0.5715    4.8915    1.4994 C   0  0  0  0  0  0  0  0  0  0  0  0
    1.2169    3.7192    1.7374 C   0  0  0  0  0  0  0  0  0  0  0  0
    0.9447    2.6014    0.9941 C   0  0  0  0  0  0  0  0  0  0  0  0
    1.4533    1.3308    1.0530 C   0  0  0  0  0  0  0  0  0  0  0  0
    2.4134    0.7192    1.8621 C   0  0  0  0  0  0  0  0  0  0  0  0
    3.2252    1.2814    2.9656 C   0  0  0  0  0  0  0  0  0  0  0  0
    4.0513    0.2282    3.4563 N   0  0  0  0  0  0  0  0  0  0  0  0
    3.7725   -0.9500    2.6928 C   0  0  0  0  0  0  0  0  0  0  0  0
    4.3602   -2.0093    2.9202 O   0  0  0  0  0  0  0  0  0  0  0  0
    2.7553   -0.6238    1.7110 C   0  0  0  0  0  0  0  0  0  0  0  0
    2.1006   -1.3257    0.7242 C   0  0  0  0  0  0  0  0  0  0  0  0
    2.1422   -2.6347    0.2794 C   0  0  0  0  0  0  0  0  0  0  0  0
    2.8759   -3.7217    0.6638 C   0  0  0  0  0  0  0  0  0  0  0  0
    2.6892   -4.9254    0.0128 C   0  0  0  0  0  0  0  0  0  0  0  0
    1.7808   -5.0386   -1.0084 C   0  0  0  0  0  0  0  0  0  0  0  0
    1.0343   -3.9515   -1.4066 C   0  0  0  0  0  0  0  0  0  0  0  0
    1.2263   -2.7646   -0.7562 C   0  0  0  0  0  0  0  0  0  0  0  0
    0.6469   -1.5975   -0.9447 N   0  0  0  0  0  0  0  0  0  0  0  0
    1.1358   -0.7009   -0.0851 C   0  0  0  0  0  0  0  0  0  0  0  0
    0.8119    0.6350    0.0794 C   0  0  0  0  0  0  0  0  0  0  0  0
   -3.9345   -1.8764    1.8249 H   0  0  0  0  0  0  0  0  0  0  0  0
   -2.5804   -2.8202    1.1896 H   0  0  0  0  0  0  0  0  0  0  0  0
   -4.0376   -2.4413    0.1071 H   0  0  0  0  0  0  0  0  0  0  0  0
   -1.8252   -0.7857    0.9817 H   0  0  0  0  0  0  0  0  0  0  0  0
   -3.6418   -1.0758   -1.3069 H   0  0  0  0  0  0  0  0  0  0  0  0
   -1.4743   -2.5407   -0.4944 H   0  0  0  0  0  0  0  0  0  0  0  0
   -2.1827   -2.5069   -2.1019 H   0  0  0  0  0  0  0  0  0  0  0  0
   -0.1764   -2.0147   -2.8352 H   0  0  0  0  0  0  0  0  0  0  0  0
   -1.8561    2.5173   -2.9808 H   0  0  0  0  0  0  0  0  0  0  0  0
   -0.0367    2.7359   -2.7018 H   0  0  0  0  0  0  0  0  0  0  0  0
   -0.6761    1.5932   -3.8662 H   0  0  0  0  0  0  0  0  0  0  0  0
   -2.9127    0.7625   -2.3525 H   0  0  0  0  0  0  0  0  0  0  0  0
   -4.5472    2.6842   -0.1440 H   0  0  0  0  0  0  0  0  0  0  0  0
   -3.8494    2.7776   -1.7563 H   0  0  0  0  0  0  0  0  0  0  0  0
   -4.7942    1.3294   -1.3803 H   0  0  0  0  0  0  0  0  0  0  0  0
   -1.3647    3.8112   -1.0348 H   0  0  0  0  0  0  0  0  0  0  0  0
   -0.8845    5.8355    0.2847 H   0  0  0  0  0  0  0  0  0  0  0  0
    0.7949    5.7654    2.0918 H   0  0  0  0  0  0  0  0  0  0  0  0
    1.9682    3.6487    2.5304 H   0  0  0  0  0  0  0  0  0  0  0  0
    3.8868    2.0907    2.5395 H   0  0  0  0  0  0  0  0  0  0  0  0
    2.5967    1.6993    3.7873 H   0  0  0  0  0  0  0  0  0  0  0  0
    4.7363    0.3270    4.2421 H   0  0  0  0  0  0  0  0  0  0  0  0
    3.5871   -3.7061    1.4353 H   0  0  0  0  0  0  0  0  0  0  0  0
    3.2659   -5.8106    0.3031 H   0  0  0  0  0  0  0  0  0  0  0  0
    1.6292   -5.9934   -1.5280 H   0  0  0  0  0  0  0  0  0  0  0  0
    0.3048   -4.0175   -2.2172 H   0  0  0  0  0  0  0  0  0  0  0  0
  1  2  1  0
  2  3  1  0
  3  4  1  0
  4  5  1  0
  5  6  1  0
  6  7  1  0
  7  8  1  6
  7  9  1  0
  9 10  1  0
 10 11  1  0
  7 12  1  0
 12 13  1  0
 13 14  2  0
 14 15  1  0
 15 16  2  0
 16 17  1  0
 17 18  2  0
 18 19  1  0
 19 20  2  0
 20 21  1  0
 21 22  1  0
 22 23  1  0
 23 24  2  0
 23 25  1  0
 25 26  2  0
 26 27  1  0
 27 28  2  0
 28 29  1  0
 29 30  2  0
 30 31  1  0
 31 32  2  0
 32 33  1  0
 33 34  1  0
 34 35  2  0
  9  3  1  0
 35 12  1  0
 33  5  1  0
 18 13  1  0
 35 19  1  0
 25 20  1  0
 34 26  1  0
 32 27  1  0
  1 36  1  0
  1 37  1  0
  1 38  1  0
  2 39  1  0
  3 40  1  6
  4 41  1  0
  4 42  1  0
  5 43  1  6
  8 44  1  0
  8 45  1  0
  8 46  1  0
  9 47  1  6
 11 48  1  0
 11 49  1  0
 11 50  1  0
 14 51  1  0
 15 52  1  0
 16 53  1  0
 17 54  1  0
 21 55  1  0
 21 56  1  0
 22 57  1  0
 28 58  1  0
 29 59  1  0
 30 60  1  0
 31 61  1  0
M  END
$$$$
[H]C(=O)C1=N[C@]([H])(N([H])C(=O)c2c([H])c([H])c([H])c3c2C([H])([H])C([H])([H])C([H])([H])C3([H])[H])C(=O)N(C([H])([H])[H])c2c([H])c([H])c([H])c([H])c21
     RDKit          3D

 49 52  0  0  0  0  0  0  0  0999 V2000
   -2.9926    2.4653   -1.2321 C   0  0  0  0  0  0  0  0  0  0  0  0
   -2.8789    1.0321   -1.0918 N   0  0  0  0  0  0  0  0  0  0  0  0
   -3.8656    0.3695   -0.2948 C   0  0  0  0  0  0  0  0  0  0  0  0
   -5.0366    1.1073   -0.2338 C   0  0  0  0  0  0  0  0  0  0  0  0
   -6.1146    0.6247    0.4571 C   0  0  0  0  0  0  0  0  0  0  0  0
   -5.9915   -0.6001    1.0778 C   0  0  0  0  0  0  0  0  0  0  0  0
   -4.8208   -1.3564    1.0285 C   0  0  0  0  0  0  0  0  0  0  0  0
   -3.7409   -0.8651    0.3341 C   0  0  0  0  0  0  0  0  0  0  0  0
   -2.5606   -1.7448    0.3959 C   0  0  0  0  0  0  0  0  0  0  0  0
   -1.5631   -1.6413   -0.3786 N   0  0  0  0  0  0  0  0  0  0  0  0
   -1.0853   -0.8640   -1.4548 C   0  0  2  0  0  0  0  0  0  0  0  0
    0.2877   -0.4448   -1.1672 N   0  0  0  0  0  0  0  0  0  0  0  0
    0.6082    0.1107    0.0734 C   0  0  0  0  0  0  0  0  0  0  0  0
   -0.3358    0.2592    0.9511 O   0  0  0  0  0  0  0  0  0  0  0  0
    1.8835    0.5754    0.5532 C   0  0  0  0  0  0  0  0  0  0  0  0
    1.9399    1.8089    1.2324 C   0  0  0  0  0  0  0  0  0  0  0  0
    3.1200    2.3863    1.6351 C   0  0  0  0  0  0  0  0  0  0  0  0
    4.3022    1.7201    1.3565 C   0  0  0  0  0  0  0  0  0  0  0  0
    4.2851    0.5134    0.6967 C   0  0  0  0  0  0  0  0  0  0  0  0
    5.4811   -0.2747    0.3327 C   0  0  0  0  0  0  0  0  0  0  0  0
    5.3678   -0.6018   -1.1557 C   0  0  0  0  0  0  0  0  0  0  0  0
    4.0453   -1.2061   -1.5314 C   0  0  0  0  0  0  0  0  0  0  0  0
    3.1467   -1.3792   -0.3057 C   0  0  0  0  0  0  0  0  0  0  0  0
    3.0464   -0.0449    0.3033 C   0  0  0  0  0  0  0  0  0  0  0  0
   -1.8112    0.3702   -1.7579 C   0  0  0  0  0  0  0  0  0  0  0  0
   -1.4143    0.9633   -2.8153 O   0  0  0  0  0  0  0  0  0  0  0  0
   -2.5638   -2.7499    1.4208 C   0  0  0  0  0  0  0  0  0  0  0  0
   -1.5180   -3.5047    1.4651 O   0  0  0  0  0  0  0  0  0  0  0  0
   -3.2732    2.9939   -0.3044 H   0  0  0  0  0  0  0  0  0  0  0  0
   -3.6347    2.7489   -2.1000 H   0  0  0  0  0  0  0  0  0  0  0  0
   -1.9790    2.8755   -1.4946 H   0  0  0  0  0  0  0  0  0  0  0  0
   -5.0357    2.0600   -0.7539 H   0  0  0  0  0  0  0  0  0  0  0  0
   -7.0201    1.2217    0.4928 H   0  0  0  0  0  0  0  0  0  0  0  0
   -6.8609   -0.9828    1.6313 H   0  0  0  0  0  0  0  0  0  0  0  0
   -4.7794   -2.3112    1.5125 H   0  0  0  0  0  0  0  0  0  0  0  0
   -1.0071   -1.4937   -2.3999 H   0  0  0  0  0  0  0  0  0  0  0  0
    0.9892   -0.5513   -1.9099 H   0  0  0  0  0  0  0  0  0  0  0  0
    0.9855    2.3010    1.4321 H   0  0  0  0  0  0  0  0  0  0  0  0
    3.1214    3.3451    2.1574 H   0  0  0  0  0  0  0  0  0  0  0  0
    5.2674    2.1466    1.6573 H   0  0  0  0  0  0  0  0  0  0  0  0
    5.4977   -1.2106    0.8906 H   0  0  0  0  0  0  0  0  0  0  0  0
    6.4191    0.3202    0.4474 H   0  0  0  0  0  0  0  0  0  0  0  0
    5.4987    0.3912   -1.6833 H   0  0  0  0  0  0  0  0  0  0  0  0
    6.2020   -1.2351   -1.4989 H   0  0  0  0  0  0  0  0  0  0  0  0
    4.1594   -2.1733   -2.0727 H   0  0  0  0  0  0  0  0  0  0  0  0
    3.5053   -0.5166   -2.2094 H   0  0  0  0  0  0  0  0  0  0  0  0
    2.2469   -1.8886   -0.5873 H   0  0  0  0  0  0  0  0  0  0  0  0
    3.7518   -2.0729    0.3906 H   0  0  0  0  0  0  0  0  0  0  0  0
   -3.2747   -2.9965    2.1660 H   0  0  0  0  0  0  0  0  0  0  0  0
  1  2  1  0
  2  3  1  0
  3  4  2  0
  4  5  1  0
  5  6  2  0
  6  7  1  0
  7  8  2  0
  8  9  1  0
  9 10  2  0
 10 11  1  0
 11 12  1  0
 12 13  1  0
 13 14  2  0
 13 15  1  0
 15 16  2  0
 16 17  1  0
 17 18  2  0
 18 19  1  0
 19 20  1  0
 20 21  1  0
 21 22  1  0
 22 23  1  0
 23 24  1  0
 11 25  1  0
 25 26  2  0
  9 27  1  0
 27 28  2  0
 25  2  1  0
  8  3  1  0
 24 15  1  0
 24 19  2  0
  1 29  1  0
  1 30  1  0
  1 31  1  0
  4 32  1  0
  5 33  1  0
  6 34  1  0
  7 35  1  0
 11 36  1  6
 12 37  1  0
 16 38  1  0
 17 39  1  0
 18 40  1  0
 20 41  1  0
 20 42  1  0
 21 43  1  0
 21 44  1  0
 22 45  1  0
 22 46  1  0
 23 47  1  0
 23 48  1  0
 27 49  1  0
M  END
$$$$
[H]c1nc([H])n(-c2nc(C(=O)N([H])C([H])(C(=O)N([H])[C@@]([H])(c3c([H])c([H])c(-c4c([H])nc(N([H])[H])nc4[H])c([H])c3[H])C([H])([H])[H])C(C([H])([H])[H])(C([H])([H])[H])C([H])([H])[H])c([H])c([H])c2[H])n1
     RDKit          3D

 66 69  0  0  0  0  0  0  0  0999 V2000
    1.8818    2.8900   -0.1363 C   0  0  0  0  0  0  0  0  0  0  0  0
    1.7865    1.4413    0.4200 C   0  0  1  0  0  0  0  0  0  0  0  0
    0.9123    0.6876   -0.4468 N   0  0  0  0  0  0  0  0  0  0  0  0
   -0.4387    0.4763   -0.1295 C   0  0  0  0  0  0  0  0  0  0  0  0
   -0.8098    1.0255    0.9921 O   0  0  0  0  0  0  0  0  0  0  0  0
   -1.4629   -0.2476   -0.8577 C   0  0  0  0  0  0  0  0  0  0  0  0
   -2.7798    0.2495   -0.4175 N   0  0  0  0  0  0  0  0  0  0  0  0
   -3.7586   -0.5174    0.2071 C   0  0  0  0  0  0  0  0  0  0  0  0
   -3.5367   -1.7325    0.4323 O   0  0  0  0  0  0  0  0  0  0  0  0
   -5.0496    0.0280    0.6150 C   0  0  0  0  0  0  0  0  0  0  0  0
   -5.3877    1.3489    0.4488 C   0  0  0  0  0  0  0  0  0  0  0  0
   -6.6241    1.8044    0.8346 C   0  0  0  0  0  0  0  0  0  0  0  0
   -7.5188    0.9260    1.3887 C   0  0  0  0  0  0  0  0  0  0  0  0
   -7.1962   -0.4181    1.5667 C   0  0  0  0  0  0  0  0  0  0  0  0
   -5.9840   -0.7910    1.1717 N   0  0  0  0  0  0  0  0  0  0  0  0
   -8.1338   -1.3244    2.1328 N   0  0  0  0  0  0  0  0  0  0  0  0
   -9.4520   -1.1024    2.2782 C   0  0  0  0  0  0  0  0  0  0  0  0
  -10.0096   -2.1995    2.8537 N   0  0  0  0  0  0  0  0  0  0  0  0
   -9.0267   -3.0906    3.0586 C   0  0  0  0  0  0  0  0  0  0  0  0
   -7.8996   -2.5173    2.6043 N   0  0  0  0  0  0  0  0  0  0  0  0
   -1.4651   -0.2075   -2.3383 C   0  0  0  0  0  0  0  0  0  0  0  0
   -2.6854   -1.0443   -2.7891 C   0  0  0  0  0  0  0  0  0  0  0  0
   -0.2922   -0.8384   -3.0226 C   0  0  0  0  0  0  0  0  0  0  0  0
   -1.6633    1.2150   -2.7895 C   0  0  0  0  0  0  0  0  0  0  0  0
    3.1822    0.9606    0.4440 C   0  0  0  0  0  0  0  0  0  0  0  0
    3.8087    0.8702    1.6692 C   0  0  0  0  0  0  0  0  0  0  0  0
    5.1388    0.4339    1.7493 C   0  0  0  0  0  0  0  0  0  0  0  0
    5.8422    0.0882    0.6024 C   0  0  0  0  0  0  0  0  0  0  0  0
    5.1937    0.1864   -0.6077 C   0  0  0  0  0  0  0  0  0  0  0  0
    3.8820    0.6165   -0.6907 C   0  0  0  0  0  0  0  0  0  0  0  0
    7.2304   -0.3470    0.6734 C   0  0  0  0  0  0  0  0  0  0  0  0
    7.7452   -1.0457    1.7653 C   0  0  0  0  0  0  0  0  0  0  0  0
    9.0682   -1.4160    1.7604 N   0  0  0  0  0  0  0  0  0  0  0  0
    9.8767   -1.1283    0.7420 C   0  0  0  0  0  0  0  0  0  0  0  0
   11.2518   -1.5014    0.7137 N   0  0  0  0  0  0  0  0  0  0  0  0
    9.3892   -0.4510   -0.3245 N   0  0  0  0  0  0  0  0  0  0  0  0
    8.0985   -0.0676   -0.3625 C   0  0  0  0  0  0  0  0  0  0  0  0
    2.4674    3.4798    0.5793 H   0  0  0  0  0  0  0  0  0  0  0  0
    0.8531    3.2527   -0.3125 H   0  0  0  0  0  0  0  0  0  0  0  0
    2.4301    2.8567   -1.1251 H   0  0  0  0  0  0  0  0  0  0  0  0
    1.3847    1.5576    1.4383 H   0  0  0  0  0  0  0  0  0  0  0  0
    1.3085    0.3116   -1.3158 H   0  0  0  0  0  0  0  0  0  0  0  0
   -1.4899   -1.3464   -0.5550 H   0  0  0  0  0  0  0  0  0  0  0  0
   -2.9928    1.2824   -0.5988 H   0  0  0  0  0  0  0  0  0  0  0  0
   -4.6639    2.0496    0.0020 H   0  0  0  0  0  0  0  0  0  0  0  0
   -6.8649    2.8678    0.6845 H   0  0  0  0  0  0  0  0  0  0  0  0
   -8.5115    1.2579    1.7077 H   0  0  0  0  0  0  0  0  0  0  0  0
  -10.0416   -0.2422    2.0153 H   0  0  0  0  0  0  0  0  0  0  0  0
   -9.1664   -4.0636    3.5034 H   0  0  0  0  0  0  0  0  0  0  0  0
   -3.6278   -0.4876   -2.5760 H   0  0  0  0  0  0  0  0  0  0  0  0
   -2.6786   -2.0501   -2.3187 H   0  0  0  0  0  0  0  0  0  0  0  0
   -2.6712   -1.2103   -3.8910 H   0  0  0  0  0  0  0  0  0  0  0  0
    0.2770   -1.5523   -2.3941 H   0  0  0  0  0  0  0  0  0  0  0  0
   -0.6435   -1.4041   -3.9113 H   0  0  0  0  0  0  0  0  0  0  0  0
    0.3457   -0.0258   -3.4662 H   0  0  0  0  0  0  0  0  0  0  0  0
   -1.5101    1.9387   -1.9323 H   0  0  0  0  0  0  0  0  0  0  0  0
   -2.7325    1.3893   -3.0990 H   0  0  0  0  0  0  0  0  0  0  0  0
   -0.9373    1.5016   -3.5714 H   0  0  0  0  0  0  0  0  0  0  0  0
    3.3345    1.1191    2.6072 H   0  0  0  0  0  0  0  0  0  0  0  0
    5.6194    0.3634    2.7156 H   0  0  0  0  0  0  0  0  0  0  0  0
    5.7332   -0.0835   -1.5173 H   0  0  0  0  0  0  0  0  0  0  0  0
    3.3473    0.7027   -1.6483 H   0  0  0  0  0  0  0  0  0  0  0  0
    7.1034   -1.2758    2.5757 H   0  0  0  0  0  0  0  0  0  0  0  0
   11.4904   -2.4877    0.9294 H   0  0  0  0  0  0  0  0  0  0  0  0
   12.0224   -0.8443    0.4880 H   0  0  0  0  0  0  0  0  0  0  0  0
    7.7013    0.4848   -1.2253 H   0  0  0  0  0  0  0  0  0  0  0  0
  1  2  1  0
  2  3  1  0
  3  4  1  0
  4  5  2  0
  4  6  1  0
  6  7  1  0
  7  8  1  0
  8  9  2  0
  8 10  1  0
 10 11  2  0
 11 12  1  0
 12 13  2  0
 13 14  1  0
 14 15  2  0
 14 16  1  0
 16 17  1  0
 17 18  2  0
 18 19  1  0
 19 20  2  0
  6 21  1  0
 21 22  1  0
 21 23  1  0
 21 24  1  0
  2 25  1  0
 25 26  2  0
 26 27  1  0
 27 28  2  0
 28 29  1  0
 29 30  2  0
 28 31  1  0
 31 32  2  0
 32 33  1  0
 33 34  2  0
 34 35  1  0
 34 36  1  0
 36 37  2  0
 15 10  1  0
 20 16  1  0
 30 25  1  0
 37 31  1  0
  1 38  1  0
  1 39  1  0
  1 40  1  0
  2 41  1  1
  3 42  1  0
  6 43  1  0
  7 44  1  0
 11 45  1  0
 12 46  1  0
 13 47  1  0
 17 48  1  0
 19 49  1  0
 22 50  1  0
 22 51  1  0
 22 52  1  0
 23 53  1  0
 23 54  1  0
 23 55  1  0
 24 56  1  0
 24 57  1  0
 24 58  1  0
 26 59  1  0
 27 60  1  0
 29 61  1  0
 30 62  1  0
 32 63  1  0
 35 64  1  0
 35 65  1  0
 37 66  1  0
M  END
$$$$
[H]OC([H])([H])[C@@]1([H])OC([H])(n2c([H])nc3c([H])c([H])c([H])nc32)[C@]([H])(O[H])[C@@]([H])(O[H])[C@]1([H])O[H]
     RDKit          3D

 35 37  0  0  0  0  0  0  0  0999 V2000
   -3.4032    2.4309   -0.7577 O   0  0  0  0  0  0  0  0  0  0  0  0
   -2.3346    1.7664   -1.3997 C   0  0  0  0  0  0  0  0  0  0  0  0
   -2.2576    0.3210   -0.8829 C   0  0  1  0  0  0  0  0  0  0  0  0
   -1.2733   -0.3884   -1.4359 O   0  0  0  0  0  0  0  0  0  0  0  0
   -0.2766   -0.9447   -0.7366 C   0  0  0  0  0  0  0  0  0  0  0  0
   -0.5229   -1.1952    0.7225 C   0  0  2  0  0  0  0  0  0  0  0  0
   -0.1636   -2.4873    1.1242 O   0  0  0  0  0  0  0  0  0  0  0  0
   -1.9857   -1.0123    1.1132 C   0  0  1  0  0  0  0  0  0  0  0  0
   -2.0945   -1.0984    2.4815 O   0  0  0  0  0  0  0  0  0  0  0  0
   -2.3110    0.4019    0.6097 C   0  0  2  0  0  0  0  0  0  0  0  0
   -3.5926    0.7319    1.0333 O   0  0  0  0  0  0  0  0  0  0  0  0
    0.9642   -0.2456   -0.9636 N   0  0  0  0  0  0  0  0  0  0  0  0
    1.1751    0.6494   -1.9279 C   0  0  0  0  0  0  0  0  0  0  0  0
    2.4185    1.1109   -1.8711 N   0  0  0  0  0  0  0  0  0  0  0  0
    3.0350    0.4924   -0.8327 C   0  0  0  0  0  0  0  0  0  0  0  0
    4.3109    0.6044   -0.3436 C   0  0  0  0  0  0  0  0  0  0  0  0
    4.6547   -0.1622    0.7380 C   0  0  0  0  0  0  0  0  0  0  0  0
    3.7259   -1.0054    1.2900 C   0  0  0  0  0  0  0  0  0  0  0  0
    2.4903   -1.0948    0.7937 N   0  0  0  0  0  0  0  0  0  0  0  0
    2.1329   -0.3524   -0.2657 C   0  0  0  0  0  0  0  0  0  0  0  0
   -3.0180    3.1345   -0.1610 H   0  0  0  0  0  0  0  0  0  0  0  0
   -1.3991    2.3148   -1.2149 H   0  0  0  0  0  0  0  0  0  0  0  0
   -2.5644    1.7908   -2.4848 H   0  0  0  0  0  0  0  0  0  0  0  0
   -3.2471   -0.1263   -1.2055 H   0  0  0  0  0  0  0  0  0  0  0  0
   -0.0994   -1.9756   -1.1810 H   0  0  0  0  0  0  0  0  0  0  0  0
    0.0377   -0.4357    1.3032 H   0  0  0  0  0  0  0  0  0  0  0  0
   -0.7451   -3.1092    0.6290 H   0  0  0  0  0  0  0  0  0  0  0  0
   -2.5829   -1.7723    0.5748 H   0  0  0  0  0  0  0  0  0  0  0  0
   -1.2573   -1.3636    2.9385 H   0  0  0  0  0  0  0  0  0  0  0  0
   -1.5280    1.0596    1.0275 H   0  0  0  0  0  0  0  0  0  0  0  0
   -3.4868    1.3541    1.7982 H   0  0  0  0  0  0  0  0  0  0  0  0
    0.4724    1.0069   -2.6972 H   0  0  0  0  0  0  0  0  0  0  0  0
    5.0408    1.2864   -0.8005 H   0  0  0  0  0  0  0  0  0  0  0  0
    5.6618   -0.0777    1.1287 H   0  0  0  0  0  0  0  0  0  0  0  0
    4.0236   -1.6092    2.1551 H   0  0  0  0  0  0  0  0  0  0  0  0
  1  2  1  0
  2  3  1  0
  3  4  1  0
  4  5  1  0
  5  6  1  0
  6  7  1  0
  6  8  1  0
  8  9  1  0
  8 10  1  0
 10 11  1  0
  5 12  1  0
 12 13  1  0
 13 14  2  0
 14 15  1  0
 15 16  2  0
 16 17  1  0
 17 18  2  0
 18 19  1  0
 19 20  2  0
 10  3  1  0
 20 12  1  0
 20 15  1  0
  1 21  1  0
  2 22  1  0
  2 23  1  0
  3 24  1  6
  5 25  1  0
  6 26  1  1
  7 27  1  0
  8 28  1  6
  9 29  1  0
 10 30  1  1
 11 31  1  0
 13 32  1  0
 16 33  1  0
 17 34  1  0
 18 35  1  0
M  END
$$$$
[H]c1nc2sc(C(=O)N([H])C([H])([H])[H])c([H])c2c(Oc2c([H])c([H])c(N([H])C(=O)c3c([H])c([H])c(C(F)(F)F)c([H])c3[H])c([H])c2[H])c1[H]
     RDKit          3D

 49 52  0  0  0  0  0  0  0  0999 V2000
   -9.6423    1.1560    1.6156 C   0  0  0  0  0  0  0  0  0  0  0  0
   -8.2438    0.9694    1.1353 N   0  0  0  0  0  0  0  0  0  0  0  0
   -7.9869   -0.1013    0.2933 C   0  0  0  0  0  0  0  0  0  0  0  0
   -8.9676   -0.8861   -0.0071 O   0  0  0  0  0  0  0  0  0  0  0  0
   -6.7028   -0.4795   -0.3176 C   0  0  0  0  0  0  0  0  0  0  0  0
   -5.4423    0.0179   -0.1729 C   0  0  0  0  0  0  0  0  0  0  0  0
   -4.4210   -0.5587   -0.8357 C   0  0  0  0  0  0  0  0  0  0  0  0
   -3.0659   -0.2481   -0.8105 C   0  0  0  0  0  0  0  0  0  0  0  0
   -2.5381    0.8206   -0.0349 O   0  0  0  0  0  0  0  0  0  0  0  0
   -1.1557    0.9139   -0.0097 C   0  0  0  0  0  0  0  0  0  0  0  0
   -0.4540    0.0989    0.8819 C   0  0  0  0  0  0  0  0  0  0  0  0
    0.9057    0.1367    0.9423 C   0  0  0  0  0  0  0  0  0  0  0  0
    1.6203    0.9722    0.1326 C   0  0  0  0  0  0  0  0  0  0  0  0
    3.0472    0.9640    0.1051 N   0  0  0  0  0  0  0  0  0  0  0  0
    3.7910   -0.2394    0.0645 C   0  0  0  0  0  0  0  0  0  0  0  0
    3.1721   -1.3179    0.0329 O   0  0  0  0  0  0  0  0  0  0  0  0
    5.2404   -0.3117    0.0498 C   0  0  0  0  0  0  0  0  0  0  0  0
    5.9983    0.2218    1.0787 C   0  0  0  0  0  0  0  0  0  0  0  0
    7.3733    0.1793    1.0684 C   0  0  0  0  0  0  0  0  0  0  0  0
    8.0923   -0.3925    0.0367 C   0  0  0  0  0  0  0  0  0  0  0  0
    7.3465   -0.9219   -0.9892 C   0  0  0  0  0  0  0  0  0  0  0  0
    5.9653   -0.8815   -0.9818 C   0  0  0  0  0  0  0  0  0  0  0  0
    9.5840   -0.4135    0.0584 C   0  0  0  0  0  0  0  0  0  0  0  0
   10.0098   -0.8749    1.2845 F   0  0  0  0  0  0  0  0  0  0  0  0
   10.1435    0.7873   -0.2665 F   0  0  0  0  0  0  0  0  0  0  0  0
   10.0146   -1.3286   -0.9075 F   0  0  0  0  0  0  0  0  0  0  0  0
    0.9529    1.7920   -0.7552 C   0  0  0  0  0  0  0  0  0  0  0  0
   -0.4446    1.7442   -0.8079 C   0  0  0  0  0  0  0  0  0  0  0  0
   -2.1795   -1.0024   -1.5585 C   0  0  0  0  0  0  0  0  0  0  0  0
   -2.5468   -2.0721   -2.3491 C   0  0  0  0  0  0  0  0  0  0  0  0
   -3.8478   -2.3563   -2.3574 N   0  0  0  0  0  0  0  0  0  0  0  0
   -4.7585   -1.6335   -1.6257 C   0  0  0  0  0  0  0  0  0  0  0  0
   -6.4356   -1.7904   -1.4204 S   0  0  0  0  0  0  0  0  0  0  0  0
   -9.6894    2.0631    2.2090 H   0  0  0  0  0  0  0  0  0  0  0  0
   -9.8909    0.2164    2.1599 H   0  0  0  0  0  0  0  0  0  0  0  0
  -10.3109    1.1882    0.7135 H   0  0  0  0  0  0  0  0  0  0  0  0
   -7.5048    1.6517    1.4523 H   0  0  0  0  0  0  0  0  0  0  0  0
   -5.3180    0.9253    0.4925 H   0  0  0  0  0  0  0  0  0  0  0  0
   -1.0878   -0.5637    1.4931 H   0  0  0  0  0  0  0  0  0  0  0  0
    1.4229   -0.4936    1.6485 H   0  0  0  0  0  0  0  0  0  0  0  0
    3.5478    1.8721    0.1143 H   0  0  0  0  0  0  0  0  0  0  0  0
    5.4325    0.6891    1.8890 H   0  0  0  0  0  0  0  0  0  0  0  0
    7.9429    0.6104    1.8852 H   0  0  0  0  0  0  0  0  0  0  0  0
    7.9007   -1.3540   -1.8051 H   0  0  0  0  0  0  0  0  0  0  0  0
    5.4194   -1.2917   -1.7988 H   0  0  0  0  0  0  0  0  0  0  0  0
    1.5338    2.4588   -1.3900 H   0  0  0  0  0  0  0  0  0  0  0  0
   -0.9335    2.4100   -1.5170 H   0  0  0  0  0  0  0  0  0  0  0  0
   -1.1106   -0.7471   -1.5320 H   0  0  0  0  0  0  0  0  0  0  0  0
   -1.7778   -2.5988   -2.9287 H   0  0  0  0  0  0  0  0  0  0  0  0
  1  2  1  0
  2  3  1  0
  3  4  2  0
  3  5  1  0
  5  6  2  0
  6  7  1  0
  7  8  2  0
  8  9  1  0
  9 10  1  0
 10 11  2  0
 11 12  1  0
 12 13  2  0
 13 14  1  0
 14 15  1  0
 15 16  2  0
 15 17  1  0
 17 18  2  0
 18 19  1  0
 19 20  2  0
 20 21  1  0
 21 22  2  0
 20 23  1  0
 23 24  1  0
 23 25  1  0
 23 26  1  0
 13 27  1  0
 27 28  2  0
  8 29  1  0
 29 30  2  0
 30 31  1  0
 31 32  2  0
 32 33  1  0
 33  5  1  0
 32  7  1  0
 28 10  1  0
 22 17  1  0
  1 34  1  0
  1 35  1  0
  1 36  1  0
  2 37  1  0
  6 38  1  0
 11 39  1  0
 12 40  1  0
 14 41  1  0
 18 42  1  0
 19 43  1  0
 21 44  1  0
 22 45  1  0
 27 46  1  0
 28 47  1  0
 29 48  1  0
 30 49  1  0
M  END
$$$$
[H]c1nc(C#Cc2c([H])c([H])c([H])c([H])c2[H])c([H])c([H])c1C#Cc1nc(C([H])([H])[H])sc1[H]
     RDKit          3D

 34 36  0  0  0  0  0  0  0  0999 V2000
    8.7469    1.0613    0.0117 C   0  0  0  0  0  0  0  0  0  0  0  0
    7.6423    0.0390    0.1618 C   0  0  0  0  0  0  0  0  0  0  0  0
    6.3399    0.2072    0.0751 N   0  0  0  0  0  0  0  0  0  0  0  0
    5.5376   -0.7961    0.2342 C   0  0  0  0  0  0  0  0  0  0  0  0
    6.0981   -2.0222    0.4931 C   0  0  0  0  0  0  0  0  0  0  0  0
    7.7706   -1.6400    0.4896 S   0  0  0  0  0  0  0  0  0  0  0  0
    4.0778   -0.6697    0.1490 C   0  0  0  0  0  0  0  0  0  0  0  0
    2.8802   -0.5443    0.0749 C   0  0  0  0  0  0  0  0  0  0  0  0
    1.4579   -0.3874    0.0089 C   0  0  0  0  0  0  0  0  0  0  0  0
    0.6160   -1.3145    0.5782 C   0  0  0  0  0  0  0  0  0  0  0  0
   -0.7667   -1.1231    0.4909 C   0  0  0  0  0  0  0  0  0  0  0  0
   -1.2980   -0.0373   -0.1465 C   0  0  0  0  0  0  0  0  0  0  0  0
   -0.4577    0.8562   -0.6958 N   0  0  0  0  0  0  0  0  0  0  0  0
    0.8905    0.6939   -0.6251 C   0  0  0  0  0  0  0  0  0  0  0  0
   -2.7241    0.1162   -0.2105 C   0  0  0  0  0  0  0  0  0  0  0  0
   -3.9220    0.2564   -0.2466 C   0  0  0  0  0  0  0  0  0  0  0  0
   -5.3453    0.4269   -0.2846 C   0  0  0  0  0  0  0  0  0  0  0  0
   -6.0121    0.8774    0.8370 C   0  0  0  0  0  0  0  0  0  0  0  0
   -7.3879    1.0567    0.8450 C   0  0  0  0  0  0  0  0  0  0  0  0
   -8.1112    0.7784   -0.2959 C   0  0  0  0  0  0  0  0  0  0  0  0
   -7.4753    0.3330   -1.4140 C   0  0  0  0  0  0  0  0  0  0  0  0
   -6.0984    0.1584   -1.4069 C   0  0  0  0  0  0  0  0  0  0  0  0
    9.1513    1.0810   -0.9994 H   0  0  0  0  0  0  0  0  0  0  0  0
    8.3767    2.0528    0.3406 H   0  0  0  0  0  0  0  0  0  0  0  0
    9.5086    0.7634    0.7876 H   0  0  0  0  0  0  0  0  0  0  0  0
    5.5868   -2.9874    0.6571 H   0  0  0  0  0  0  0  0  0  0  0  0
    0.9931   -2.1983    1.0981 H   0  0  0  0  0  0  0  0  0  0  0  0
   -1.4552   -1.8405    0.9321 H   0  0  0  0  0  0  0  0  0  0  0  0
    1.4862    1.4689   -1.0990 H   0  0  0  0  0  0  0  0  0  0  0  0
   -5.4244    1.0904    1.7236 H   0  0  0  0  0  0  0  0  0  0  0  0
   -7.8619    1.4116    1.7486 H   0  0  0  0  0  0  0  0  0  0  0  0
   -9.1753    0.9182   -0.2864 H   0  0  0  0  0  0  0  0  0  0  0  0
   -8.0269    0.1109   -2.3142 H   0  0  0  0  0  0  0  0  0  0  0  0
   -5.6181   -0.1976   -2.3116 H   0  0  0  0  0  0  0  0  0  0  0  0
  1  2  1  0
  2  3  2  0
  3  4  1  0
  4  5  2  0
  5  6  1  0
  4  7  1  0
  7  8  3  0
  8  9  1  0
  9 10  2  0
 10 11  1  0
 11 12  2  0
 12 13  1  0
 13 14  2  0
 12 15  1  0
 15 16  3  0
 16 17  1  0
 17 18  2  0
 18 19  1  0
 19 20  2  0
 20 21  1  0
 21 22  2  0
  6  2  1  0
 14  9  1  0
 22 17  1  0
  1 23  1  0
  1 24  1  0
  1 25  1  0
  5 26  1  0
 10 27  1  0
 11 28  1  0
 14 29  1  0
 18 30  1  0
 19 31  1  0
 20 32  1  0
 21 33  1  0
 22 34  1  0
M  END
$$$$
[H]O[C@]1([H])[C@@]([H])(C([H])([H])OP(=O)(O[H])OP(=O)(O[H])OP(=O)(O[H])OC([H])([H])[C@@]2([H])O[C@@]([H])(n3c([H])nc4c(N([H])[H])nc([H])nc43)[C@]([H])(O[H])[C@@]2([H])O[H])O[C@@]([H])(n2c([H])nc3c(N([H])[H])nc([H])nc32)[C@]1([H])O[H]
     RDKit          3D

 76 81  0  0  0  0  0  0  0  0999 V2000
  -11.8810   -1.4052    1.9883 N   0  0  0  0  0  0  0  0  0  0  0  0
  -10.7668   -1.4211    1.1149 C   0  0  0  0  0  0  0  0  0  0  0  0
  -10.5101   -2.4070    0.2393 N   0  0  0  0  0  0  0  0  0  0  0  0
   -9.4510   -2.4185   -0.5887 C   0  0  0  0  0  0  0  0  0  0  0  0
   -8.5918   -1.3922   -0.5495 N   0  0  0  0  0  0  0  0  0  0  0  0
   -8.7728   -0.3495    0.3063 C   0  0  0  0  0  0  0  0  0  0  0  0
   -8.0787    0.7784    0.5431 N   0  0  0  0  0  0  0  0  0  0  0  0
   -8.7212    1.4478    1.5001 C   0  0  0  0  0  0  0  0  0  0  0  0
   -9.8098    0.7455    1.8610 N   0  0  0  0  0  0  0  0  0  0  0  0
   -9.8620   -0.3701    1.1357 C   0  0  0  0  0  0  0  0  0  0  0  0
   -6.8759    1.1472   -0.1346 C   0  0  2  0  0  0  0  0  0  0  0  0
   -6.1485    0.0217   -0.5787 O   0  0  0  0  0  0  0  0  0  0  0  0
   -4.9465    0.6205   -0.9498 C   0  0  2  0  0  0  0  0  0  0  0  0
   -3.9495   -0.4250   -1.3148 C   0  0  0  0  0  0  0  0  0  0  0  0
   -2.7216    0.1012   -1.6970 O   0  0  0  0  0  0  0  0  0  0  0  0
   -1.6142   -1.0895   -2.1041 P   0  0  0  0  0  0  0  0  0  0  0  0
   -1.8288   -2.4922   -1.1683 O   0  0  0  0  0  0  0  0  0  0  0  0
   -1.7244   -1.5063   -3.5497 O   0  0  0  0  0  0  0  0  0  0  0  0
   -0.0626   -0.4718   -1.8331 O   0  0  0  0  0  0  0  0  0  0  0  0
    0.3904   -0.9331   -0.2670 P   0  0  0  0  0  0  0  0  0  0  0  0
    1.2246    0.3737    0.4098 O   0  0  0  0  0  0  0  0  0  0  0  0
   -0.8483   -1.2160    0.5893 O   0  0  0  0  0  0  0  0  0  0  0  0
    1.3302   -2.3087   -0.3879 O   0  0  0  0  0  0  0  0  0  0  0  0
    2.8838   -2.1290    0.1972 P   0  0  0  0  0  0  0  0  0  0  0  0
    3.0717   -2.6971    1.7752 O   0  0  0  0  0  0  0  0  0  0  0  0
    3.7997   -2.9831   -0.6821 O   0  0  0  0  0  0  0  0  0  0  0  0
    3.3872   -0.5393    0.0335 O   0  0  0  0  0  0  0  0  0  0  0  0
    4.4416   -0.2266    0.9069 C   0  0  0  0  0  0  0  0  0  0  0  0
    4.8034    1.2135    0.6705 C   0  0  1  0  0  0  0  0  0  0  0  0
    5.8239    1.6869    1.4457 O   0  0  0  0  0  0  0  0  0  0  0  0
    6.9151    1.9967    0.6240 C   0  0  2  0  0  0  0  0  0  0  0  0
    6.2978    2.4348   -0.6269 C   0  0  2  0  0  0  0  0  0  0  0  0
    5.6930    3.6954   -0.3705 O   0  0  0  0  0  0  0  0  0  0  0  0
    5.1376    1.4795   -0.7815 C   0  0  2  0  0  0  0  0  0  0  0  0
    4.0790    2.1466   -1.4108 O   0  0  0  0  0  0  0  0  0  0  0  0
    7.7740    0.8766    0.6282 N   0  0  0  0  0  0  0  0  0  0  0  0
    8.0964    0.2306    1.7889 C   0  0  0  0  0  0  0  0  0  0  0  0
    8.9184   -0.7801    1.4763 N   0  0  0  0  0  0  0  0  0  0  0  0
    9.1323   -0.7967    0.1298 C   0  0  0  0  0  0  0  0  0  0  0  0
    9.8695   -1.5951   -0.7041 C   0  0  0  0  0  0  0  0  0  0  0  0
   10.6093   -2.6668   -0.1476 N   0  0  0  0  0  0  0  0  0  0  0  0
    9.8425   -1.3040   -2.0180 N   0  0  0  0  0  0  0  0  0  0  0  0
    9.1145   -0.2630   -2.4935 C   0  0  0  0  0  0  0  0  0  0  0  0
    8.3927    0.5192   -1.6792 N   0  0  0  0  0  0  0  0  0  0  0  0
    8.3925    0.2642   -0.3668 C   0  0  0  0  0  0  0  0  0  0  0  0
   -4.5804    1.3530    0.3381 C   0  0  2  0  0  0  0  0  0  0  0  0
   -4.1973    0.4237    1.2742 O   0  0  0  0  0  0  0  0  0  0  0  0
   -5.9359    1.9428    0.7275 C   0  0  1  0  0  0  0  0  0  0  0  0
   -5.9361    3.2571    0.2602 O   0  0  0  0  0  0  0  0  0  0  0  0
  -11.7597   -1.7467    2.9574 H   0  0  0  0  0  0  0  0  0  0  0  0
  -12.7957   -1.0630    1.6744 H   0  0  0  0  0  0  0  0  0  0  0  0
   -9.2917   -3.2511   -1.2836 H   0  0  0  0  0  0  0  0  0  0  0  0
   -8.4371    2.4157    1.9448 H   0  0  0  0  0  0  0  0  0  0  0  0
   -7.1685    1.6969   -1.0635 H   0  0  0  0  0  0  0  0  0  0  0  0
   -5.1787    1.3262   -1.7628 H   0  0  0  0  0  0  0  0  0  0  0  0
   -3.7502   -1.0333   -0.3945 H   0  0  0  0  0  0  0  0  0  0  0  0
   -4.3883   -1.1065   -2.0550 H   0  0  0  0  0  0  0  0  0  0  0  0
   -1.7553   -3.3214   -1.7235 H   0  0  0  0  0  0  0  0  0  0  0  0
    0.5529    1.0512    0.6475 H   0  0  0  0  0  0  0  0  0  0  0  0
    2.2266   -2.6140    2.2812 H   0  0  0  0  0  0  0  0  0  0  0  0
    5.2942   -0.8939    0.7002 H   0  0  0  0  0  0  0  0  0  0  0  0
    4.1231   -0.3672    1.9534 H   0  0  0  0  0  0  0  0  0  0  0  0
    3.8836    1.8156    0.9326 H   0  0  0  0  0  0  0  0  0  0  0  0
    7.3909    2.8955    1.1200 H   0  0  0  0  0  0  0  0  0  0  0  0
    6.9000    2.5970   -1.5067 H   0  0  0  0  0  0  0  0  0  0  0  0
    5.1729    3.6245    0.4574 H   0  0  0  0  0  0  0  0  0  0  0  0
    5.3622    0.5840   -1.3580 H   0  0  0  0  0  0  0  0  0  0  0  0
    3.4452    1.5188   -1.8376 H   0  0  0  0  0  0  0  0  0  0  0  0
    7.7793    0.4469    2.7988 H   0  0  0  0  0  0  0  0  0  0  0  0
   10.3006   -3.1266    0.7276 H   0  0  0  0  0  0  0  0  0  0  0  0
   11.4700   -2.9961   -0.6198 H   0  0  0  0  0  0  0  0  0  0  0  0
    9.1635   -0.1187   -3.5661 H   0  0  0  0  0  0  0  0  0  0  0  0
   -3.8374    2.1450    0.1601 H   0  0  0  0  0  0  0  0  0  0  0  0
   -4.4265    0.7837    2.1868 H   0  0  0  0  0  0  0  0  0  0  0  0
   -6.1340    1.8557    1.7961 H   0  0  0  0  0  0  0  0  0  0  0  0
   -5.7478    3.1867   -0.7271 H   0  0  0  0  0  0  0  0  0  0  0  0
  1  2  1  0
  2  3  2  0
  3  4  1  0
  4  5  2  0
  5  6  1  0
  6  7  1  0
  7  8  1  0
  8  9  2  0
  9 10  1  0
  7 11  1  0
 11 12  1  0
 12 13  1  0
 13 14  1  0
 14 15  1  0
 15 16  1  0
 16 17  1  0
 16 18  2  0
 16 19  1  0
 19 20  1  0
 20 21  1  0
 20 22  2  0
 20 23  1  0
 23 24  1  0
 24 25  1  0
 24 26  2  0
 24 27  1  0
 27 28  1  0
 28 29  1  0
 29 30  1  0
 30 31  1  0
 31 32  1  0
 32 33  1  0
 32 34  1  0
 34 35  1  0
 31 36  1  0
 36 37  1  0
 37 38  2  0
 38 39  1  0
 39 40  2  0
 40 41  1  0
 40 42  1  0
 42 43  2  0
 43 44  1  0
 44 45  2  0
 13 46  1  0
 46 47  1  0
 46 48  1  0
 48 49  1  0
 10  2  1  0
 48 11  1  0
 10  6  2  0
 34 29  1  0
 45 36  1  0
 45 39  1  0
  1 50  1  0
  1 51  1  0
  4 52  1  0
  8 53  1  0
 11 54  1  6
 13 55  1  6
 14 56  1  0
 14 57  1  0
 17 58  1  0
 21 59  1  0
 25 60  1  0
 28 61  1  0
 28 62  1  0
 29 63  1  1
 31 64  1  1
 32 65  1  6
 33 66  1  0
 34 67  1  6
 35 68  1  0
 37 69  1  0
 41 70  1  0
 41 71  1  0
 43 72  1  0
 46 73  1  6
 47 74  1  0
 48 75  1  1
 49 76  1  0
M  END
$$$$
[H]O[C@]([H])(C([H])([H])[H])[C@@]([H])(C(=O)N1C([H])([H])C([H])([H])C([H])([H])[C@@]1([H])C(=O)N([H])[C@]([H])(C(=O)N1C([H])([H])C([H])([H])C([H])([H])C1([H])[H])C([H])([H])[H])N([H])[H]
     RDKit          3D

 52 53  0  0  0  0  0  0  0  0999 V2000
    3.8733   -0.4270   -2.5228 C   0  0  0  0  0  0  0  0  0  0  0  0
    5.0418   -0.3292   -1.5695 C   0  0  1  0  0  0  0  0  0  0  0  0
    5.8156    0.7701   -1.8621 O   0  0  0  0  0  0  0  0  0  0  0  0
    4.5171   -0.3191   -0.1249 C   0  0  2  0  0  0  0  0  0  0  0  0
    3.7428   -1.4953    0.0558 N   0  0  0  0  0  0  0  0  0  0  0  0
    3.8779    0.9681    0.1393 C   0  0  0  0  0  0  0  0  0  0  0  0
    4.5726    1.9829   -0.2664 O   0  0  0  0  0  0  0  0  0  0  0  0
    2.6525    1.2204    0.7539 N   0  0  0  0  0  0  0  0  0  0  0  0
    2.1118    2.5741    0.9071 C   0  0  0  0  0  0  0  0  0  0  0  0
    1.2039    2.4781    2.0888 C   0  0  0  0  0  0  0  0  0  0  0  0
    1.2947    1.0828    2.6098 C   0  0  0  0  0  0  0  0  0  0  0  0
    1.7204    0.3265    1.3401 C   0  0  1  0  0  0  0  0  0  0  0  0
    0.5571    0.1272    0.4451 C   0  0  0  0  0  0  0  0  0  0  0  0
    0.5471    0.7136   -0.6565 O   0  0  0  0  0  0  0  0  0  0  0  0
   -0.5479   -0.6970    0.7756 N   0  0  0  0  0  0  0  0  0  0  0  0
   -1.6706   -0.8848   -0.0973 C   0  0  1  0  0  0  0  0  0  0  0  0
   -1.9671   -2.3388   -0.3673 C   0  0  0  0  0  0  0  0  0  0  0  0
   -2.8801   -0.3209    0.5872 C   0  0  0  0  0  0  0  0  0  0  0  0
   -2.8065    0.1946    1.7315 O   0  0  0  0  0  0  0  0  0  0  0  0
   -4.1539   -0.3526   -0.0419 N   0  0  0  0  0  0  0  0  0  0  0  0
   -4.4120   -0.9075   -1.3618 C   0  0  0  0  0  0  0  0  0  0  0  0
   -5.5242    0.0226   -1.8612 C   0  0  0  0  0  0  0  0  0  0  0  0
   -6.4086    0.0689   -0.6233 C   0  0  0  0  0  0  0  0  0  0  0  0
   -5.4032    0.1379    0.4769 C   0  0  0  0  0  0  0  0  0  0  0  0
    3.6630   -1.4922   -2.7616 H   0  0  0  0  0  0  0  0  0  0  0  0
    4.0763    0.1550   -3.4556 H   0  0  0  0  0  0  0  0  0  0  0  0
    2.9959   -0.0007   -2.0127 H   0  0  0  0  0  0  0  0  0  0  0  0
    5.6417   -1.2745   -1.6615 H   0  0  0  0  0  0  0  0  0  0  0  0
    6.6162    0.4480   -2.3572 H   0  0  0  0  0  0  0  0  0  0  0  0
    5.4387   -0.3314    0.5528 H   0  0  0  0  0  0  0  0  0  0  0  0
    3.6434   -2.0648   -0.8053 H   0  0  0  0  0  0  0  0  0  0  0  0
    4.1070   -2.1060    0.8476 H   0  0  0  0  0  0  0  0  0  0  0  0
    1.5129    2.8499    0.0146 H   0  0  0  0  0  0  0  0  0  0  0  0
    2.9497    3.2921    1.0632 H   0  0  0  0  0  0  0  0  0  0  0  0
    1.5089    3.2082    2.8850 H   0  0  0  0  0  0  0  0  0  0  0  0
    0.1276    2.6601    1.8106 H   0  0  0  0  0  0  0  0  0  0  0  0
    2.1601    1.0245    3.2928 H   0  0  0  0  0  0  0  0  0  0  0  0
    0.3626    0.6865    3.0234 H   0  0  0  0  0  0  0  0  0  0  0  0
    2.1508   -0.6596    1.6612 H   0  0  0  0  0  0  0  0  0  0  0  0
   -0.5219   -1.1783    1.6997 H   0  0  0  0  0  0  0  0  0  0  0  0
   -1.5667   -0.3189   -1.0434 H   0  0  0  0  0  0  0  0  0  0  0  0
   -1.9810   -2.4845   -1.4666 H   0  0  0  0  0  0  0  0  0  0  0  0
   -1.1693   -3.0097    0.0113 H   0  0  0  0  0  0  0  0  0  0  0  0
   -2.9475   -2.6582    0.0312 H   0  0  0  0  0  0  0  0  0  0  0  0
   -3.5526   -0.7735   -2.0520 H   0  0  0  0  0  0  0  0  0  0  0  0
   -4.7926   -1.9433   -1.3258 H   0  0  0  0  0  0  0  0  0  0  0  0
   -5.0582    1.0240   -2.0247 H   0  0  0  0  0  0  0  0  0  0  0  0
   -6.0371   -0.3773   -2.7381 H   0  0  0  0  0  0  0  0  0  0  0  0
   -7.1376    0.8794   -0.6448 H   0  0  0  0  0  0  0  0  0  0  0  0
   -6.9070   -0.9404   -0.5689 H   0  0  0  0  0  0  0  0  0  0  0  0
   -5.7451   -0.4113    1.3860 H   0  0  0  0  0  0  0  0  0  0  0  0
   -5.2928    1.2016    0.7878 H   0  0  0  0  0  0  0  0  0  0  0  0
  1  2  1  0
  2  3  1  0
  2  4  1  0
  4  5  1  0
  4  6  1  0
  6  7  2  0
  6  8  1  0
  8  9  1  0
  9 10  1  0
 10 11  1  0
 11 12  1  0
 12 13  1  0
 13 14  2  0
 13 15  1  0
 15 16  1  0
 16 17  1  0
 16 18  1  0
 18 19  2  0
 18 20  1  0
 20 21  1  0
 21 22  1  0
 22 23  1  0
 23 24  1  0
 12  8  1  0
 24 20  1  0
  1 25  1  0
  1 26  1  0
  1 27  1  0
  2 28  1  1
  3 29  1  0
  4 30  1  1
  5 31  1  0
  5 32  1  0
  9 33  1  0
  9 34  1  0
 10 35  1  0
 10 36  1  0
 11 37  1  0
 11 38  1  0
 12 39  1  1
 15 40  1  0
 16 41  1  6
 17 42  1  0
 17 43  1  0
 17 44  1  0
 21 45  1  0
 21 46  1  0
 22 47  1  0
 22 48  1  0
 23 49  1  0
 23 50  1  0
 24 51  1  0
 24 52  1  0
M  END
$$$$
