[H]c1nc(Oc2c([H])c([H])c([H])c(F)c2F)c(-n2nc3c([H])c([H])c([H])c(Oc4c([H])c([H])c5nc([H])c([H])c([H])c5c4[H])c3c([H])c2=O)c([H])c1[H]
     RDKit          3D

 53 58  0  0  0  0  0  0  0  0999 V2000
   -5.4553    0.2856    1.6355 C   0  0  0  0  0  0  0  0  0  0  0  0
   -4.9575    1.0002    0.5691 C   0  0  0  0  0  0  0  0  0  0  0  0
   -3.8932    0.4787   -0.1293 O   0  0  0  0  0  0  0  0  0  0  0  0
   -3.9918    0.1658   -1.4717 C   0  0  0  0  0  0  0  0  0  0  0  0
   -2.8675   -0.3554   -2.1252 C   0  0  0  0  0  0  0  0  0  0  0  0
   -1.6825   -0.5312   -1.3599 N   0  0  0  0  0  0  0  0  0  0  0  0
   -0.4788   -0.1432   -1.8130 C   0  0  0  0  0  0  0  0  0  0  0  0
   -0.3670    0.3898   -2.9339 O   0  0  0  0  0  0  0  0  0  0  0  0
    0.6673   -0.3217   -1.0551 C   0  0  0  0  0  0  0  0  0  0  0  0
    0.5382   -0.9127    0.1864 C   0  0  0  0  0  0  0  0  0  0  0  0
   -0.7055   -1.2992    0.6233 C   0  0  0  0  0  0  0  0  0  0  0  0
   -0.8625   -1.8908    1.8570 C   0  0  0  0  0  0  0  0  0  0  0  0
    0.2538   -2.0815    2.6319 C   0  0  0  0  0  0  0  0  0  0  0  0
    1.5225   -1.6940    2.2009 C   0  0  0  0  0  0  0  0  0  0  0  0
    1.7044   -1.1005    0.9711 C   0  0  0  0  0  0  0  0  0  0  0  0
    2.8335   -0.6979    0.4621 O   0  0  0  0  0  0  0  0  0  0  0  0
    4.1257   -0.5386    0.5341 C   0  0  0  0  0  0  0  0  0  0  0  0
    4.9460   -0.8963    1.5767 C   0  0  0  0  0  0  0  0  0  0  0  0
    6.3020   -0.6633    1.5092 C   0  0  0  0  0  0  0  0  0  0  0  0
    6.8738   -0.0696    0.4046 C   0  0  0  0  0  0  0  0  0  0  0  0
    6.0871    0.3053   -0.6643 C   0  0  0  0  0  0  0  0  0  0  0  0
    6.6653    0.9080   -1.7864 C   0  0  0  0  0  0  0  0  0  0  0  0
    8.0143    1.1240   -1.8192 C   0  0  0  0  0  0  0  0  0  0  0  0
    8.7778    0.7371   -0.7319 C   0  0  0  0  0  0  0  0  0  0  0  0
    8.1980    0.1607    0.3326 N   0  0  0  0  0  0  0  0  0  0  0  0
    4.7490    0.0666   -0.5786 C   0  0  0  0  0  0  0  0  0  0  0  0
   -1.7856   -1.0915   -0.1768 N   0  0  0  0  0  0  0  0  0  0  0  0
   -2.9238   -0.6820   -3.4655 C   0  0  0  0  0  0  0  0  0  0  0  0
   -4.0979   -0.4894   -4.1521 C   0  0  0  0  0  0  0  0  0  0  0  0
   -5.1902    0.0212   -3.5006 C   0  0  0  0  0  0  0  0  0  0  0  0
   -5.1018    0.3274   -2.2002 N   0  0  0  0  0  0  0  0  0  0  0  0
   -5.5608    2.1970    0.2709 C   0  0  0  0  0  0  0  0  0  0  0  0
   -5.1284    2.9620   -0.7531 F   0  0  0  0  0  0  0  0  0  0  0  0
   -6.6339    2.6428    1.0376 C   0  0  0  0  0  0  0  0  0  0  0  0
   -7.2260    3.8198    0.7427 F   0  0  0  0  0  0  0  0  0  0  0  0
   -7.1173    1.9126    2.1009 C   0  0  0  0  0  0  0  0  0  0  0  0
   -6.5086    0.7163    2.3936 C   0  0  0  0  0  0  0  0  0  0  0  0
   -4.9981   -0.6597    1.8914 H   0  0  0  0  0  0  0  0  0  0  0  0
    1.6397   -0.0224   -1.3905 H   0  0  0  0  0  0  0  0  0  0  0  0
   -1.8541   -2.1897    2.1853 H   0  0  0  0  0  0  0  0  0  0  0  0
    0.1706   -2.5442    3.6097 H   0  0  0  0  0  0  0  0  0  0  0  0
    2.3798   -1.8517    2.8204 H   0  0  0  0  0  0  0  0  0  0  0  0
    4.5700   -1.3691    2.4820 H   0  0  0  0  0  0  0  0  0  0  0  0
    6.9402   -0.9505    2.3396 H   0  0  0  0  0  0  0  0  0  0  0  0
    6.0398    1.1975   -2.6177 H   0  0  0  0  0  0  0  0  0  0  0  0
    8.5144    1.5805   -2.6491 H   0  0  0  0  0  0  0  0  0  0  0  0
    9.8407    0.9112   -0.7663 H   0  0  0  0  0  0  0  0  0  0  0  0
    4.1507    0.3754   -1.4430 H   0  0  0  0  0  0  0  0  0  0  0  0
   -2.0487   -1.0868   -3.9710 H   0  0  0  0  0  0  0  0  0  0  0  0
   -4.1294   -0.7494   -5.2029 H   0  0  0  0  0  0  0  0  0  0  0  0
   -6.1109    0.1725   -4.0378 H   0  0  0  0  0  0  0  0  0  0  0  0
   -7.9586    2.2906    2.6801 H   0  0  0  0  0  0  0  0  0  0  0  0
   -6.8694    0.1336    3.2164 H   0  0  0  0  0  0  0  0  0  0  0  0
  1  2  2  0
  2  3  1  0
  3  4  1  0
  4  5  1  0
  5  6  1  0
  6  7  1  0
  7  8  2  0
  7  9  1  0
  9 10  2  0
 10 11  1  0
 11 12  1  0
 12 13  2  0
 13 14  1  0
 14 15  2  0
 15 16  1  0
 16 17  1  0
 17 18  2  0
 18 19  1  0
 19 20  2  0
 20 21  1  0
 21 22  1  0
 22 23  2  0
 23 24  1  0
 24 25  2  0
 21 26  2  0
 11 27  2  0
  5 28  2  0
 28 29  1  0
 29 30  2  0
 30 31  1  0
  2 32  1  0
 32 33  1  0
 32 34  2  0
 34 35  1  0
 34 36  1  0
 36 37  2  0
 37  1  1  0
 31  4  2  0
 27  6  1  0
 15 10  1  0
 26 17  1  0
 25 20  1  0
  1 38  1  0
  9 39  1  0
 12 40  1  0
 13 41  1  0
 14 42  1  0
 18 43  1  0
 19 44  1  0
 22 45  1  0
 23 46  1  0
 24 47  1  0
 26 48  1  0
 28 49  1  0
 29 50  1  0
 30 51  1  0
 36 52  1  0
 37 53  1  0
M  END
$$$$
[H]OC(=O)c1c([H])c([H])nc(N2C([H])([H])C([H])([H])N(c3nc([H])c(C(F)(F)F)c([H])c3[H])[C@]([H])(C([H])([H])[H])C2([H])[H])c1[H]
     RDKit          3D

 43 45  0  0  0  0  0  0  0  0999 V2000
    1.0958   -2.3127    0.6523 C   0  0  0  0  0  0  0  0  0  0  0  0
    0.3127   -1.0883    0.3605 C   0  0  2  0  0  0  0  0  0  0  0  0
   -0.7184   -1.2673   -0.7507 C   0  0  0  0  0  0  0  0  0  0  0  0
   -1.5769   -0.1115   -0.6574 N   0  0  0  0  0  0  0  0  0  0  0  0
   -1.0228    1.2103   -0.5183 C   0  0  0  0  0  0  0  0  0  0  0  0
    0.4438    1.2928   -0.3177 C   0  0  0  0  0  0  0  0  0  0  0  0
    1.1000    0.0630    0.0525 N   0  0  0  0  0  0  0  0  0  0  0  0
    2.5255    0.0803    0.0647 C   0  0  0  0  0  0  0  0  0  0  0  0
    3.2126    1.1600    0.6319 C   0  0  0  0  0  0  0  0  0  0  0  0
    4.5909    1.2011    0.6449 C   0  0  0  0  0  0  0  0  0  0  0  0
    5.3201    0.1788    0.0987 C   0  0  0  0  0  0  0  0  0  0  0  0
    4.6218   -0.8860   -0.4603 C   0  0  0  0  0  0  0  0  0  0  0  0
    3.2826   -0.8948   -0.4563 N   0  0  0  0  0  0  0  0  0  0  0  0
    6.8030    0.1445    0.0787 C   0  0  0  0  0  0  0  0  0  0  0  0
    7.3012    1.2699    0.7201 F   0  0  0  0  0  0  0  0  0  0  0  0
    7.2899    0.1721   -1.2122 F   0  0  0  0  0  0  0  0  0  0  0  0
    7.3207   -0.9466    0.7404 F   0  0  0  0  0  0  0  0  0  0  0  0
   -2.9804   -0.2194   -0.7224 C   0  0  0  0  0  0  0  0  0  0  0  0
   -3.8008    0.4031    0.2296 C   0  0  0  0  0  0  0  0  0  0  0  0
   -5.1753    0.3411    0.1727 C   0  0  0  0  0  0  0  0  0  0  0  0
   -5.7929   -0.3480   -0.8436 C   0  0  0  0  0  0  0  0  0  0  0  0
   -4.9722   -0.9654   -1.7869 C   0  0  0  0  0  0  0  0  0  0  0  0
   -3.6272   -0.8771   -1.6886 N   0  0  0  0  0  0  0  0  0  0  0  0
   -5.9952    0.9729    1.1803 C   0  0  0  0  0  0  0  0  0  0  0  0
   -5.3897    1.6331    2.2345 O   0  0  0  0  0  0  0  0  0  0  0  0
   -7.2601    0.9491    1.1429 O   0  0  0  0  0  0  0  0  0  0  0  0
    1.3898   -2.8760   -0.2679 H   0  0  0  0  0  0  0  0  0  0  0  0
    1.9513   -2.0825    1.3207 H   0  0  0  0  0  0  0  0  0  0  0  0
    0.4565   -3.0038    1.2703 H   0  0  0  0  0  0  0  0  0  0  0  0
   -0.2937   -0.8230    1.2744 H   0  0  0  0  0  0  0  0  0  0  0  0
   -0.1851   -1.2242   -1.7122 H   0  0  0  0  0  0  0  0  0  0  0  0
   -1.2687   -2.2211   -0.6161 H   0  0  0  0  0  0  0  0  0  0  0  0
   -1.3028    1.7558   -1.4608 H   0  0  0  0  0  0  0  0  0  0  0  0
   -1.5597    1.7002    0.3266 H   0  0  0  0  0  0  0  0  0  0  0  0
    0.9485    1.7696   -1.2110 H   0  0  0  0  0  0  0  0  0  0  0  0
    0.6429    2.0129    0.5135 H   0  0  0  0  0  0  0  0  0  0  0  0
    2.6159    1.9648    1.0623 H   0  0  0  0  0  0  0  0  0  0  0  0
    5.1009    2.0418    1.0908 H   0  0  0  0  0  0  0  0  0  0  0  0
    5.1991   -1.6996   -0.8951 H   0  0  0  0  0  0  0  0  0  0  0  0
   -3.2743    0.9305    1.0101 H   0  0  0  0  0  0  0  0  0  0  0  0
   -6.8755   -0.4366   -0.9557 H   0  0  0  0  0  0  0  0  0  0  0  0
   -5.4617   -1.5045   -2.5836 H   0  0  0  0  0  0  0  0  0  0  0  0
   -4.9921    2.5404    2.2435 H   0  0  0  0  0  0  0  0  0  0  0  0
  1  2  1  0
  2  3  1  0
  3  4  1  0
  4  5  1  0
  5  6  1  0
  6  7  1  0
  7  8  1  0
  8  9  2  0
  9 10  1  0
 10 11  2  0
 11 12  1  0
 12 13  2  0
 11 14  1  0
 14 15  1  0
 14 16  1  0
 14 17  1  0
  4 18  1  0
 18 19  2  0
 19 20  1  0
 20 21  2  0
 21 22  1  0
 22 23  2  0
 20 24  1  0
 24 25  1  0
 24 26  2  0
  7  2  1  0
 13  8  1  0
 23 18  1  0
  1 27  1  0
  1 28  1  0
  1 29  1  0
  2 30  1  1
  3 31  1  0
  3 32  1  0
  5 33  1  0
  5 34  1  0
  6 35  1  0
  6 36  1  0
  9 37  1  0
 10 38  1  0
 12 39  1  0
 19 40  1  0
 21 41  1  0
 22 42  1  0
 25 43  1  0
M  END
$$$$
[H]N=C(N([H])[H])N([H])C([H])([H])C([H])([H])C([H])([H])[C@@]([H])(C([H])=O)N([H])C(=O)[C@@]1([H])N(C(=O)[C@@]([H])(c2c([H])c([H])c([H])c([H])c2[H])N([H])C(=O)OC(C([H])([H])[H])(C([H])([H])[H])C([H])([H])[H])C([H])([H])C([H])([H])C1([H])[H]
     RDKit          3D

 71 72  0  0  0  0  0  0  0  0999 V2000
   -7.6440    0.1562   -0.3318 C   0  0  0  0  0  0  0  0  0  0  0  0
   -6.8987    0.8167    0.7618 C   0  0  0  0  0  0  0  0  0  0  0  0
   -6.3507    2.1334    0.2296 C   0  0  0  0  0  0  0  0  0  0  0  0
   -7.7830    1.1499    1.9418 C   0  0  0  0  0  0  0  0  0  0  0  0
   -5.8400    0.0043    1.2411 O   0  0  0  0  0  0  0  0  0  0  0  0
   -4.8368   -0.3373    0.3756 C   0  0  0  0  0  0  0  0  0  0  0  0
   -4.9691    0.0872   -0.8098 O   0  0  0  0  0  0  0  0  0  0  0  0
   -3.6620   -1.1043    0.6773 N   0  0  0  0  0  0  0  0  0  0  0  0
   -2.7674   -1.2642   -0.4796 C   0  0  1  0  0  0  0  0  0  0  0  0
   -1.3718   -1.1055   -0.1208 C   0  0  0  0  0  0  0  0  0  0  0  0
   -0.6839   -2.1882    0.0049 O   0  0  0  0  0  0  0  0  0  0  0  0
   -0.7568    0.1251    0.0979 N   0  0  0  0  0  0  0  0  0  0  0  0
   -1.5501    1.3758    0.3572 C   0  0  0  0  0  0  0  0  0  0  0  0
   -0.7310    2.0679    1.4915 C   0  0  0  0  0  0  0  0  0  0  0  0
    0.4694    1.0831    1.6343 C   0  0  0  0  0  0  0  0  0  0  0  0
    0.5559    0.6797    0.1858 C   0  0  1  0  0  0  0  0  0  0  0  0
    1.7251    0.2125   -0.4290 C   0  0  0  0  0  0  0  0  0  0  0  0
    1.7077   -0.5862   -1.3929 O   0  0  0  0  0  0  0  0  0  0  0  0
    2.9817    0.6717    0.0368 N   0  0  0  0  0  0  0  0  0  0  0  0
    4.2786    0.3675   -0.5443 C   0  0  1  0  0  0  0  0  0  0  0  0
    5.2684    1.3834   -0.0645 C   0  0  0  0  0  0  0  0  0  0  0  0
    6.6390    1.2218   -0.6409 C   0  0  0  0  0  0  0  0  0  0  0  0
    7.5662    2.2494   -0.0003 C   0  0  0  0  0  0  0  0  0  0  0  0
    8.8953    2.2021   -0.5184 N   0  0  0  0  0  0  0  0  0  0  0  0
    9.7570    1.1174   -0.2782 C   0  0  0  0  0  0  0  0  0  0  0  0
    9.2820    0.0116    0.4986 N   0  0  0  0  0  0  0  0  0  0  0  0
   10.9497    1.0937   -0.7207 N   0  0  0  0  0  0  0  0  0  0  0  0
    4.6451   -1.0209   -0.1085 C   0  0  0  0  0  0  0  0  0  0  0  0
    3.8869   -1.6290    0.6111 O   0  0  0  0  0  0  0  0  0  0  0  0
   -3.0085   -2.7282   -0.8982 C   0  0  0  0  0  0  0  0  0  0  0  0
   -3.0991   -3.1088   -2.1879 C   0  0  0  0  0  0  0  0  0  0  0  0
   -3.3596   -4.4260   -2.5357 C   0  0  0  0  0  0  0  0  0  0  0  0
   -3.5248   -5.3366   -1.5158 C   0  0  0  0  0  0  0  0  0  0  0  0
   -3.4370   -4.9765   -0.1888 C   0  0  0  0  0  0  0  0  0  0  0  0
   -3.1761   -3.6476    0.1107 C   0  0  0  0  0  0  0  0  0  0  0  0
   -7.4702   -0.9587   -0.2304 H   0  0  0  0  0  0  0  0  0  0  0  0
   -7.2510    0.4654   -1.3122 H   0  0  0  0  0  0  0  0  0  0  0  0
   -8.7436    0.3621   -0.2524 H   0  0  0  0  0  0  0  0  0  0  0  0
   -6.9910    2.9336    0.6168 H   0  0  0  0  0  0  0  0  0  0  0  0
   -5.3419    2.3462    0.6728 H   0  0  0  0  0  0  0  0  0  0  0  0
   -6.3427    2.2062   -0.8700 H   0  0  0  0  0  0  0  0  0  0  0  0
   -7.3392    2.0823    2.4168 H   0  0  0  0  0  0  0  0  0  0  0  0
   -7.7472    0.3651    2.7118 H   0  0  0  0  0  0  0  0  0  0  0  0
   -8.8228    1.3348    1.6432 H   0  0  0  0  0  0  0  0  0  0  0  0
   -3.4213   -1.4972    1.5721 H   0  0  0  0  0  0  0  0  0  0  0  0
   -3.0532   -0.6884   -1.3435 H   0  0  0  0  0  0  0  0  0  0  0  0
   -1.5693    2.0477   -0.4805 H   0  0  0  0  0  0  0  0  0  0  0  0
   -2.4962    1.1783    0.8310 H   0  0  0  0  0  0  0  0  0  0  0  0
   -1.2954    2.1658    2.4075 H   0  0  0  0  0  0  0  0  0  0  0  0
   -0.2715    2.9702    1.0769 H   0  0  0  0  0  0  0  0  0  0  0  0
    1.3432    1.5535    2.0598 H   0  0  0  0  0  0  0  0  0  0  0  0
    0.0219    0.2525    2.2476 H   0  0  0  0  0  0  0  0  0  0  0  0
    0.3817    1.7775   -0.3377 H   0  0  0  0  0  0  0  0  0  0  0  0
    2.9772    1.2975    0.8967 H   0  0  0  0  0  0  0  0  0  0  0  0
    4.1673    0.3569   -1.6388 H   0  0  0  0  0  0  0  0  0  0  0  0
    5.3498    1.3087    1.0613 H   0  0  0  0  0  0  0  0  0  0  0  0
    4.8604    2.4113   -0.2733 H   0  0  0  0  0  0  0  0  0  0  0  0
    6.5542    1.4525   -1.7353 H   0  0  0  0  0  0  0  0  0  0  0  0
    7.0126    0.2117   -0.5151 H   0  0  0  0  0  0  0  0  0  0  0  0
    7.6353    2.0514    1.1054 H   0  0  0  0  0  0  0  0  0  0  0  0
    7.1150    3.2739   -0.0650 H   0  0  0  0  0  0  0  0  0  0  0  0
    9.2317    3.0208   -1.0942 H   0  0  0  0  0  0  0  0  0  0  0  0
    9.0387   -0.8998    0.0203 H   0  0  0  0  0  0  0  0  0  0  0  0
    9.1514    0.0598    1.5269 H   0  0  0  0  0  0  0  0  0  0  0  0
   11.3890    1.8687   -1.2904 H   0  0  0  0  0  0  0  0  0  0  0  0
    5.5755   -1.4659   -0.4351 H   0  0  0  0  0  0  0  0  0  0  0  0
   -2.9788   -2.4334   -3.0350 H   0  0  0  0  0  0  0  0  0  0  0  0
   -3.4366   -4.7760   -3.5577 H   0  0  0  0  0  0  0  0  0  0  0  0
   -3.7282   -6.3758   -1.7330 H   0  0  0  0  0  0  0  0  0  0  0  0
   -3.5676   -5.6889    0.5869 H   0  0  0  0  0  0  0  0  0  0  0  0
   -3.0950   -3.3211    1.1220 H   0  0  0  0  0  0  0  0  0  0  0  0
  1  2  1  0
  2  3  1  0
  2  4  1  0
  2  5  1  0
  5  6  1  0
  6  7  2  0
  6  8  1  0
  8  9  1  0
  9 10  1  0
 10 11  2  0
 10 12  1  0
 12 13  1  0
 13 14  1  0
 14 15  1  0
 15 16  1  0
 16 17  1  0
 17 18  2  0
 17 19  1  0
 19 20  1  0
 20 21  1  0
 21 22  1  0
 22 23  1  0
 23 24  1  0
 24 25  1  0
 25 26  1  0
 25 27  2  3
 20 28  1  0
 28 29  2  0
  9 30  1  0
 30 31  2  0
 31 32  1  0
 32 33  2  0
 33 34  1  0
 34 35  2  0
 16 12  1  0
 35 30  1  0
  1 36  1  0
  1 37  1  0
  1 38  1  0
  3 39  1  0
  3 40  1  0
  3 41  1  0
  4 42  1  0
  4 43  1  0
  4 44  1  0
  8 45  1  0
  9 46  1  6
 13 47  1  0
 13 48  1  0
 14 49  1  0
 14 50  1  0
 15 51  1  0
 15 52  1  0
 16 53  1  6
 19 54  1  0
 20 55  1  6
 21 56  1  0
 21 57  1  0
 22 58  1  0
 22 59  1  0
 23 60  1  0
 23 61  1  0
 24 62  1  0
 26 63  1  0
 26 64  1  0
 27 65  1  0
 28 66  1  0
 31 67  1  0
 32 68  1  0
 33 69  1  0
 34 70  1  0
 35 71  1  0
M  END
$$$$
[H]c1nn(C(=O)c2c([H])c([H])c([H])c([H])c2[H])c([H])c1-c1c([H])nc(-c2noc(N3C([H])([H])C([H])([H])OC([H])([H])C3([H])[H])n2)c2c([H])c(C([H])([H])[H])c([H])c(OC([H])(C([H])([H])[H])C([H])([H])[H])c12
     RDKit          3D

 67 72  0  0  0  0  0  0  0  0999 V2000
    3.9757   -2.5384   -1.3235 C   0  0  0  0  0  0  0  0  0  0  0  0
    3.1041   -2.8984   -0.1048 C   0  0  0  0  0  0  0  0  0  0  0  0
    4.0317   -3.0107    1.0732 C   0  0  0  0  0  0  0  0  0  0  0  0
    2.1099   -1.9525   -0.0074 O   0  0  0  0  0  0  0  0  0  0  0  0
    0.7604   -2.0802   -0.1416 C   0  0  0  0  0  0  0  0  0  0  0  0
    0.1893   -3.3014   -0.4285 C   0  0  0  0  0  0  0  0  0  0  0  0
   -1.1547   -3.4856   -0.5750 C   0  0  0  0  0  0  0  0  0  0  0  0
   -1.7305   -4.8427   -0.8883 C   0  0  0  0  0  0  0  0  0  0  0  0
   -2.0059   -2.4073   -0.4329 C   0  0  0  0  0  0  0  0  0  0  0  0
   -1.4925   -1.1526   -0.1440 C   0  0  0  0  0  0  0  0  0  0  0  0
   -2.3733   -0.1107   -0.0144 C   0  0  0  0  0  0  0  0  0  0  0  0
   -1.8156    1.1063    0.2685 N   0  0  0  0  0  0  0  0  0  0  0  0
   -0.5211    1.2671    0.4073 C   0  0  0  0  0  0  0  0  0  0  0  0
    0.4141    0.2268    0.2828 C   0  0  0  0  0  0  0  0  0  0  0  0
    1.8117    0.5445    0.4835 C   0  0  0  0  0  0  0  0  0  0  0  0
    2.6712    0.9982   -0.4793 C   0  0  0  0  0  0  0  0  0  0  0  0
    3.8821    1.2240    0.1265 N   0  0  0  0  0  0  0  0  0  0  0  0
    5.0510    1.7075   -0.5079 C   0  0  0  0  0  0  0  0  0  0  0  0
    6.3198    1.9320    0.1627 C   0  0  0  0  0  0  0  0  0  0  0  0
    6.7683    1.1738    1.2174 C   0  0  0  0  0  0  0  0  0  0  0  0
    7.9866    1.3988    1.8652 C   0  0  0  0  0  0  0  0  0  0  0  0
    8.7536    2.4414    1.3982 C   0  0  0  0  0  0  0  0  0  0  0  0
    8.3573    3.2309    0.3496 C   0  0  0  0  0  0  0  0  0  0  0  0
    7.1529    2.9771   -0.2599 C   0  0  0  0  0  0  0  0  0  0  0  0
    5.0041    1.9710   -1.7565 O   0  0  0  0  0  0  0  0  0  0  0  0
    3.7292    0.9119    1.3968 N   0  0  0  0  0  0  0  0  0  0  0  0
    2.4971    0.4971    1.6590 C   0  0  0  0  0  0  0  0  0  0  0  0
   -0.1035   -1.0091   -0.0013 C   0  0  0  0  0  0  0  0  0  0  0  0
   -3.8106   -0.1984   -0.1497 C   0  0  0  0  0  0  0  0  0  0  0  0
   -4.6886   -1.1417   -0.4082 N   0  0  0  0  0  0  0  0  0  0  0  0
   -5.9041   -0.7169   -0.4228 O   0  0  0  0  0  0  0  0  0  0  0  0
   -5.8750    0.5845   -0.1624 C   0  0  0  0  0  0  0  0  0  0  0  0
   -4.6057    0.9240    0.0082 N   0  0  0  0  0  0  0  0  0  0  0  0
   -6.9842    1.4688   -0.0772 N   0  0  0  0  0  0  0  0  0  0  0  0
   -8.3035    0.9299   -0.2919 C   0  0  0  0  0  0  0  0  0  0  0  0
   -9.3159    1.9777   -0.6300 C   0  0  0  0  0  0  0  0  0  0  0  0
   -8.7178    3.1734   -1.0213 O   0  0  0  0  0  0  0  0  0  0  0  0
   -7.9689    3.7018    0.0237 C   0  0  0  0  0  0  0  0  0  0  0  0
   -6.7534    2.8539    0.2175 C   0  0  0  0  0  0  0  0  0  0  0  0
    4.4638   -3.4242   -1.7382 H   0  0  0  0  0  0  0  0  0  0  0  0
    4.7824   -1.8436   -0.9911 H   0  0  0  0  0  0  0  0  0  0  0  0
    3.3355   -1.9999   -2.0402 H   0  0  0  0  0  0  0  0  0  0  0  0
    2.6919   -3.9247   -0.2632 H   0  0  0  0  0  0  0  0  0  0  0  0
    4.3034   -4.0495    1.3106 H   0  0  0  0  0  0  0  0  0  0  0  0
    4.9586   -2.4520    0.8452 H   0  0  0  0  0  0  0  0  0  0  0  0
    3.5760   -2.4692    1.9540 H   0  0  0  0  0  0  0  0  0  0  0  0
    0.7914   -4.2062   -0.5580 H   0  0  0  0  0  0  0  0  0  0  0  0
   -1.6380   -5.0010   -1.9783 H   0  0  0  0  0  0  0  0  0  0  0  0
   -1.0937   -5.5952   -0.3992 H   0  0  0  0  0  0  0  0  0  0  0  0
   -2.7454   -4.9267   -0.5039 H   0  0  0  0  0  0  0  0  0  0  0  0
   -3.0396   -2.6014   -0.5559 H   0  0  0  0  0  0  0  0  0  0  0  0
   -0.0703    2.2513    0.6358 H   0  0  0  0  0  0  0  0  0  0  0  0
    2.5073    1.1758   -1.5488 H   0  0  0  0  0  0  0  0  0  0  0  0
    6.1840    0.3494    1.5908 H   0  0  0  0  0  0  0  0  0  0  0  0
    8.2982    0.7746    2.6928 H   0  0  0  0  0  0  0  0  0  0  0  0
    9.6966    2.6081    1.9071 H   0  0  0  0  0  0  0  0  0  0  0  0
    9.0122    4.0460    0.0234 H   0  0  0  0  0  0  0  0  0  0  0  0
    6.8031    3.5795   -1.0934 H   0  0  0  0  0  0  0  0  0  0  0  0
    2.1150    0.1866    2.6031 H   0  0  0  0  0  0  0  0  0  0  0  0
   -8.2496    0.1934   -1.1186 H   0  0  0  0  0  0  0  0  0  0  0  0
   -8.6479    0.3968    0.6205 H   0  0  0  0  0  0  0  0  0  0  0  0
   -9.9737    2.2102    0.2402 H   0  0  0  0  0  0  0  0  0  0  0  0
   -9.9489    1.6310   -1.4626 H   0  0  0  0  0  0  0  0  0  0  0  0
   -8.5582    3.8135    0.9573 H   0  0  0  0  0  0  0  0  0  0  0  0
   -7.6204    4.7263   -0.2862 H   0  0  0  0  0  0  0  0  0  0  0  0
   -5.9663    3.2070   -0.4966 H   0  0  0  0  0  0  0  0  0  0  0  0
   -6.4130    2.9686    1.2735 H   0  0  0  0  0  0  0  0  0  0  0  0
  1  2  1  0
  2  3  1  0
  2  4  1  0
  4  5  1  0
  5  6  2  0
  6  7  1  0
  7  8  1  0
  7  9  2  0
  9 10  1  0
 10 11  2  0
 11 12  1  0
 12 13  2  0
 13 14  1  0
 14 15  1  0
 15 16  2  0
 16 17  1  0
 17 18  1  0
 18 19  1  0
 19 20  2  0
 20 21  1  0
 21 22  2  0
 22 23  1  0
 23 24  2  0
 18 25  2  0
 17 26  1  0
 26 27  2  0
 14 28  2  0
 11 29  1  0
 29 30  2  0
 30 31  1  0
 31 32  1  0
 32 33  2  0
 32 34  1  0
 34 35  1  0
 35 36  1  0
 36 37  1  0
 37 38  1  0
 38 39  1  0
 28  5  1  0
 33 29  1  0
 39 34  1  0
 28 10  1  0
 27 15  1  0
 24 19  1  0
  1 40  1  0
  1 41  1  0
  1 42  1  0
  2 43  1  0
  3 44  1  0
  3 45  1  0
  3 46  1  0
  6 47  1  0
  8 48  1  0
  8 49  1  0
  8 50  1  0
  9 51  1  0
 13 52  1  0
 16 53  1  0
 20 54  1  0
 21 55  1  0
 22 56  1  0
 23 57  1  0
 24 58  1  0
 27 59  1  0
 35 60  1  0
 35 61  1  0
 36 62  1  0
 36 63  1  0
 38 64  1  0
 38 65  1  0
 39 66  1  0
 39 67  1  0
M  END
$$$$
[H]N=C(N([H])[H])N([H])C([H])([H])C([H])([H])C([H])([H])[C@@]([H])(C(=O)c1nc([H])c([H])s1)N([H])C(=O)[C@@]([H])(N([H])C(=O)[C@@]([H])(N([H])[H])C([H])([H])c1c([H])c([H])c(O[H])c([H])c1[H])C([H])([H])c1c([H])c([H])c([H])c([H])c1[H]
     RDKit          3D

 72 74  0  0  0  0  0  0  0  0999 V2000
   -5.0091    1.1209    0.6811 N   0  0  0  0  0  0  0  0  0  0  0  0
   -3.9978    0.4189   -0.0933 C   0  0  1  0  0  0  0  0  0  0  0  0
   -3.2024    1.4292   -0.9033 C   0  0  0  0  0  0  0  0  0  0  0  0
   -4.0630    2.1921   -1.8334 C   0  0  0  0  0  0  0  0  0  0  0  0
   -4.2514    1.6949   -3.1035 C   0  0  0  0  0  0  0  0  0  0  0  0
   -5.0608    2.4077   -3.9844 C   0  0  0  0  0  0  0  0  0  0  0  0
   -5.6514    3.5876   -3.5672 C   0  0  0  0  0  0  0  0  0  0  0  0
   -6.4598    4.2949   -4.4543 O   0  0  0  0  0  0  0  0  0  0  0  0
   -5.4601    4.0847   -2.2897 C   0  0  0  0  0  0  0  0  0  0  0  0
   -4.6495    3.3679   -1.4124 C   0  0  0  0  0  0  0  0  0  0  0  0
   -3.0298   -0.2256    0.8194 C   0  0  0  0  0  0  0  0  0  0  0  0
   -3.1714   -0.0914    2.0521 O   0  0  0  0  0  0  0  0  0  0  0  0
   -1.9689   -0.9759    0.2989 N   0  0  0  0  0  0  0  0  0  0  0  0
   -1.0337   -1.5939    1.2298 C   0  0  1  0  0  0  0  0  0  0  0  0
   -1.2668   -3.0729    1.1375 C   0  0  0  0  0  0  0  0  0  0  0  0
   -1.0511   -3.6414   -0.2140 C   0  0  0  0  0  0  0  0  0  0  0  0
   -2.0588   -3.7326   -1.1686 C   0  0  0  0  0  0  0  0  0  0  0  0
   -1.8669   -4.2633   -2.4259 C   0  0  0  0  0  0  0  0  0  0  0  0
   -0.6246   -4.7346   -2.7817 C   0  0  0  0  0  0  0  0  0  0  0  0
    0.4009   -4.6647   -1.8700 C   0  0  0  0  0  0  0  0  0  0  0  0
    0.1786   -4.1240   -0.6082 C   0  0  0  0  0  0  0  0  0  0  0  0
    0.3190   -1.1444    0.9141 C   0  0  0  0  0  0  0  0  0  0  0  0
    0.5096   -0.3850   -0.0886 O   0  0  0  0  0  0  0  0  0  0  0  0
    1.4536   -1.5113    1.6789 N   0  0  0  0  0  0  0  0  0  0  0  0
    2.7552   -0.9886    1.2570 C   0  0  1  0  0  0  0  0  0  0  0  0
    3.2219    0.0603    2.2649 C   0  0  0  0  0  0  0  0  0  0  0  0
    2.1471    1.1566    2.2614 C   0  0  0  0  0  0  0  0  0  0  0  0
    2.5608    2.2434    3.2482 C   0  0  0  0  0  0  0  0  0  0  0  0
    3.8291    2.7840    2.8104 N   0  0  0  0  0  0  0  0  0  0  0  0
    3.8386    3.5322    1.6119 C   0  0  0  0  0  0  0  0  0  0  0  0
    4.6531    3.2132    0.5011 N   0  0  0  0  0  0  0  0  0  0  0  0
    3.0417    4.5622    1.5655 N   0  0  0  0  0  0  0  0  0  0  0  0
    3.6847   -2.1161    1.1708 C   0  0  0  0  0  0  0  0  0  0  0  0
    3.3680   -3.2917    1.4940 O   0  0  0  0  0  0  0  0  0  0  0  0
    5.0607   -1.8835    0.6835 C   0  0  0  0  0  0  0  0  0  0  0  0
    5.6345   -0.7656    0.2766 N   0  0  0  0  0  0  0  0  0  0  0  0
    6.8664   -0.7715   -0.1180 C   0  0  0  0  0  0  0  0  0  0  0  0
    7.5401   -1.9638   -0.0973 C   0  0  0  0  0  0  0  0  0  0  0  0
    6.3407   -3.0242    0.4995 S   0  0  0  0  0  0  0  0  0  0  0  0
   -5.9141    0.6274    0.6468 H   0  0  0  0  0  0  0  0  0  0  0  0
   -4.6745    1.3363    1.6468 H   0  0  0  0  0  0  0  0  0  0  0  0
   -4.4892   -0.2642   -0.7886 H   0  0  0  0  0  0  0  0  0  0  0  0
   -2.4111    0.8577   -1.4436 H   0  0  0  0  0  0  0  0  0  0  0  0
   -2.6778    2.0910   -0.1831 H   0  0  0  0  0  0  0  0  0  0  0  0
   -3.7947    0.7643   -3.4553 H   0  0  0  0  0  0  0  0  0  0  0  0
   -5.2106    2.0207   -4.9801 H   0  0  0  0  0  0  0  0  0  0  0  0
   -6.9004    5.1547   -4.1737 H   0  0  0  0  0  0  0  0  0  0  0  0
   -5.9138    5.0039   -1.9508 H   0  0  0  0  0  0  0  0  0  0  0  0
   -4.4829    3.7365   -0.4037 H   0  0  0  0  0  0  0  0  0  0  0  0
   -1.7896   -1.1273   -0.7189 H   0  0  0  0  0  0  0  0  0  0  0  0
   -1.2861   -1.3149    2.2865 H   0  0  0  0  0  0  0  0  0  0  0  0
   -0.6791   -3.6380    1.9164 H   0  0  0  0  0  0  0  0  0  0  0  0
   -2.3392   -3.2327    1.4449 H   0  0  0  0  0  0  0  0  0  0  0  0
   -3.0228   -3.3703   -0.9019 H   0  0  0  0  0  0  0  0  0  0  0  0
   -2.6772   -4.3215   -3.1548 H   0  0  0  0  0  0  0  0  0  0  0  0
   -0.5006   -5.1405   -3.7589 H   0  0  0  0  0  0  0  0  0  0  0  0
    1.3736   -5.0418   -2.1696 H   0  0  0  0  0  0  0  0  0  0  0  0
    1.0283   -4.1073    0.0458 H   0  0  0  0  0  0  0  0  0  0  0  0
    1.4135   -2.1254    2.5145 H   0  0  0  0  0  0  0  0  0  0  0  0
    2.6750   -0.4496    0.3000 H   0  0  0  0  0  0  0  0  0  0  0  0
    3.3662   -0.3491    3.2682 H   0  0  0  0  0  0  0  0  0  0  0  0
    4.1158    0.5370    1.8399 H   0  0  0  0  0  0  0  0  0  0  0  0
    1.1685    0.7772    2.5695 H   0  0  0  0  0  0  0  0  0  0  0  0
    2.0728    1.6275    1.2823 H   0  0  0  0  0  0  0  0  0  0  0  0
    1.7739    3.0015    3.2571 H   0  0  0  0  0  0  0  0  0  0  0  0
    2.6599    1.7868    4.2621 H   0  0  0  0  0  0  0  0  0  0  0  0
    4.6754    2.6051    3.3851 H   0  0  0  0  0  0  0  0  0  0  0  0
    4.9865    2.2487    0.3187 H   0  0  0  0  0  0  0  0  0  0  0  0
    4.9447    3.9573   -0.1765 H   0  0  0  0  0  0  0  0  0  0  0  0
    3.0165    5.1423    0.7008 H   0  0  0  0  0  0  0  0  0  0  0  0
    7.3774    0.1530   -0.4673 H   0  0  0  0  0  0  0  0  0  0  0  0
    8.5886   -2.1311   -0.4014 H   0  0  0  0  0  0  0  0  0  0  0  0
  1  2  1  0
  2  3  1  0
  3  4  1  0
  4  5  2  0
  5  6  1  0
  6  7  2  0
  7  8  1  0
  7  9  1  0
  9 10  2  0
  2 11  1  0
 11 12  2  0
 11 13  1  0
 13 14  1  0
 14 15  1  0
 15 16  1  0
 16 17  2  0
 17 18  1  0
 18 19  2  0
 19 20  1  0
 20 21  2  0
 14 22  1  0
 22 23  2  0
 22 24  1  0
 24 25  1  0
 25 26  1  0
 26 27  1  0
 27 28  1  0
 28 29  1  0
 29 30  1  0
 30 31  1  0
 30 32  2  3
 25 33  1  0
 33 34  2  0
 33 35  1  0
 35 36  2  0
 36 37  1  0
 37 38  2  0
 38 39  1  0
 10  4  1  0
 21 16  1  0
 39 35  1  0
  1 40  1  0
  1 41  1  0
  2 42  1  6
  3 43  1  0
  3 44  1  0
  5 45  1  0
  6 46  1  0
  8 47  1  0
  9 48  1  0
 10 49  1  0
 13 50  1  0
 14 51  1  1
 15 52  1  0
 15 53  1  0
 17 54  1  0
 18 55  1  0
 19 56  1  0
 20 57  1  0
 21 58  1  0
 24 59  1  0
 25 60  1  6
 26 61  1  0
 26 62  1  0
 27 63  1  0
 27 64  1  0
 28 65  1  0
 28 66  1  0
 29 67  1  0
 31 68  1  0
 31 69  1  0
 32 70  1  0
 37 71  1  0
 38 72  1  0
M  END
$$$$
[H]c1nc2c([H])c([H])c([H])c([H])c2c(N([H])C(=O)c2c([H])c([H])c([H])c([H])c2F)c1C([H])([H])[H]
     RDKit          3D

 34 36  0  0  0  0  0  0  0  0999 V2000
   -2.1825    0.1008    0.0314 C   0  0  0  0  0  0  0  0  0  0  0  0
   -1.9673    1.3227   -0.5347 C   0  0  0  0  0  0  0  0  0  0  0  0
   -2.9626    2.0321   -1.1558 C   0  0  0  0  0  0  0  0  0  0  0  0
   -4.2378    1.5053   -1.2205 C   0  0  0  0  0  0  0  0  0  0  0  0
   -4.4940    0.2708   -0.6586 C   0  0  0  0  0  0  0  0  0  0  0  0
   -3.4764   -0.4310   -0.0356 C   0  0  0  0  0  0  0  0  0  0  0  0
   -3.7074   -1.6334    0.5165 N   0  0  0  0  0  0  0  0  0  0  0  0
   -2.7095   -2.3115    1.1223 C   0  0  0  0  0  0  0  0  0  0  0  0
   -1.4170   -1.8014    1.2000 C   0  0  0  0  0  0  0  0  0  0  0  0
   -0.3603   -2.5972    1.8811 C   0  0  0  0  0  0  0  0  0  0  0  0
   -1.1612   -0.5748    0.6421 C   0  0  0  0  0  0  0  0  0  0  0  0
    0.1503    0.0218    0.6807 N   0  0  0  0  0  0  0  0  0  0  0  0
    1.0805   -0.2067   -0.3378 C   0  0  0  0  0  0  0  0  0  0  0  0
    2.4201    0.3245   -0.4278 C   0  0  0  0  0  0  0  0  0  0  0  0
    2.9547    1.2912    0.3897 C   0  0  0  0  0  0  0  0  0  0  0  0
    2.2326    1.8583    1.3602 F   0  0  0  0  0  0  0  0  0  0  0  0
    4.2683    1.7555    0.2632 C   0  0  0  0  0  0  0  0  0  0  0  0
    5.0881    1.2596   -0.6944 C   0  0  0  0  0  0  0  0  0  0  0  0
    4.5993    0.2908   -1.5376 C   0  0  0  0  0  0  0  0  0  0  0  0
    3.3092   -0.1602   -1.4074 C   0  0  0  0  0  0  0  0  0  0  0  0
    0.7375   -0.9721   -1.3187 O   0  0  0  0  0  0  0  0  0  0  0  0
   -0.9624    1.7356   -0.4826 H   0  0  0  0  0  0  0  0  0  0  0  0
   -2.7174    2.9945   -1.5819 H   0  0  0  0  0  0  0  0  0  0  0  0
   -5.0457    2.0391   -1.7033 H   0  0  0  0  0  0  0  0  0  0  0  0
   -5.4826   -0.1844   -0.6850 H   0  0  0  0  0  0  0  0  0  0  0  0
   -2.8661   -3.2861    1.5778 H   0  0  0  0  0  0  0  0  0  0  0  0
   -0.7131   -3.6470    1.9998 H   0  0  0  0  0  0  0  0  0  0  0  0
   -0.2510   -2.1973    2.9095 H   0  0  0  0  0  0  0  0  0  0  0  0
    0.5852   -2.5613    1.2983 H   0  0  0  0  0  0  0  0  0  0  0  0
    0.3190    0.6042    1.5100 H   0  0  0  0  0  0  0  0  0  0  0  0
    4.6318    2.5316    0.9523 H   0  0  0  0  0  0  0  0  0  0  0  0
    6.0930    1.6376   -0.7656 H   0  0  0  0  0  0  0  0  0  0  0  0
    5.2792   -0.0902   -2.2981 H   0  0  0  0  0  0  0  0  0  0  0  0
    2.9655   -0.9214   -2.0890 H   0  0  0  0  0  0  0  0  0  0  0  0
  1  2  2  0
  2  3  1  0
  3  4  2  0
  4  5  1  0
  5  6  2  0
  6  7  1  0
  7  8  2  0
  8  9  1  0
  9 10  1  0
  9 11  2  0
 11 12  1  0
 12 13  1  0
 13 14  1  0
 14 15  2  0
 15 16  1  0
 15 17  1  0
 17 18  2  0
 18 19  1  0
 19 20  2  0
 13 21  2  0
  6  1  1  0
 20 14  1  0
 11  1  1  0
  2 22  1  0
  3 23  1  0
  4 24  1  0
  5 25  1  0
  8 26  1  0
 10 27  1  0
 10 28  1  0
 10 29  1  0
 12 30  1  0
 17 31  1  0
 18 32  1  0
 19 33  1  0
 20 34  1  0
M  END
$$$$
[H]OC(=O)[C@@]([H])(N([H])C(=O)[C@@]([H])(N([H])C(=O)[C@@]([H])(N([H])C(=O)OC([H])([H])c1c([H])c([H])c([H])c([H])c1[H])C([H])([H])c1c([H])c([H])c([H])c([H])c1[H])C([H])([H])C([H])(C([H])([H])[H])C([H])([H])[H])C([H])([H])c1c([H])c([H])c([H])c([H])c1[H]
     RDKit          3D

 78 80  0  0  0  0  0  0  0  0999 V2000
    0.4073   -0.7082    4.3740 C   0  0  0  0  0  0  0  0  0  0  0  0
    1.4738    0.2613    4.0183 C   0  0  0  0  0  0  0  0  0  0  0  0
    2.8169   -0.4315    4.1415 C   0  0  0  0  0  0  0  0  0  0  0  0
    1.2878    1.0852    2.8152 C   0  0  0  0  0  0  0  0  0  0  0  0
    1.1346    0.3932    1.4878 C   0  0  2  0  0  0  0  0  0  0  0  0
    0.0187   -0.4886    1.4227 N   0  0  0  0  0  0  0  0  0  0  0  0
   -1.2009   -0.1336    0.7536 C   0  0  0  0  0  0  0  0  0  0  0  0
   -1.2890    1.0088    0.1750 O   0  0  0  0  0  0  0  0  0  0  0  0
   -2.3788   -0.9880    0.6852 C   0  0  2  0  0  0  0  0  0  0  0  0
   -2.1332   -2.3229    0.0771 C   0  0  0  0  0  0  0  0  0  0  0  0
   -1.6751   -2.2927   -1.3192 C   0  0  0  0  0  0  0  0  0  0  0  0
   -0.3607   -2.3139   -1.7124 C   0  0  0  0  0  0  0  0  0  0  0  0
    0.0133   -2.2812   -3.0254 C   0  0  0  0  0  0  0  0  0  0  0  0
   -0.9309   -2.2252   -4.0176 C   0  0  0  0  0  0  0  0  0  0  0  0
   -2.2441   -2.2042   -3.6259 C   0  0  0  0  0  0  0  0  0  0  0  0
   -2.6432   -2.2362   -2.3175 C   0  0  0  0  0  0  0  0  0  0  0  0
   -3.4840   -0.3040   -0.0057 N   0  0  0  0  0  0  0  0  0  0  0  0
   -4.6641   -0.0325    0.6841 C   0  0  0  0  0  0  0  0  0  0  0  0
   -4.7916   -0.3671    1.8794 O   0  0  0  0  0  0  0  0  0  0  0  0
   -5.7089    0.6117    0.0554 O   0  0  0  0  0  0  0  0  0  0  0  0
   -6.9272    0.9113    0.7009 C   0  0  0  0  0  0  0  0  0  0  0  0
   -7.7741    1.6139   -0.3149 C   0  0  0  0  0  0  0  0  0  0  0  0
   -9.0196    2.0557    0.0982 C   0  0  0  0  0  0  0  0  0  0  0  0
   -9.8283    2.7170   -0.8195 C   0  0  0  0  0  0  0  0  0  0  0  0
   -9.3899    2.9247   -2.1137 C   0  0  0  0  0  0  0  0  0  0  0  0
   -8.1481    2.4847   -2.5272 C   0  0  0  0  0  0  0  0  0  0  0  0
   -7.3554    1.8319   -1.6137 C   0  0  0  0  0  0  0  0  0  0  0  0
    2.4045   -0.1078    0.9554 C   0  0  0  0  0  0  0  0  0  0  0  0
    2.4995   -1.2785    0.5429 O   0  0  0  0  0  0  0  0  0  0  0  0
    3.5602    0.7085    0.8825 N   0  0  0  0  0  0  0  0  0  0  0  0
    4.8276    0.2022    0.3304 C   0  0  1  0  0  0  0  0  0  0  0  0
    4.9571    0.8790   -0.9956 C   0  0  0  0  0  0  0  0  0  0  0  0
    6.1805    0.4854   -1.6934 C   0  0  0  0  0  0  0  0  0  0  0  0
    7.3295    1.2560   -1.5875 C   0  0  0  0  0  0  0  0  0  0  0  0
    8.4653    0.8782   -2.2545 C   0  0  0  0  0  0  0  0  0  0  0  0
    8.4678   -0.2496   -3.0196 C   0  0  0  0  0  0  0  0  0  0  0  0
    7.3115   -1.0277   -3.1277 C   0  0  0  0  0  0  0  0  0  0  0  0
    6.1618   -0.6612   -2.4629 C   0  0  0  0  0  0  0  0  0  0  0  0
    5.9225    0.3506    1.2678 C   0  0  0  0  0  0  0  0  0  0  0  0
    7.1855   -0.1461    1.0388 O   0  0  0  0  0  0  0  0  0  0  0  0
    5.7757    0.9591    2.3842 O   0  0  0  0  0  0  0  0  0  0  0  0
   -0.6113   -0.4390    4.0550 H   0  0  0  0  0  0  0  0  0  0  0  0
    0.3389   -0.7625    5.5028 H   0  0  0  0  0  0  0  0  0  0  0  0
    0.6864   -1.7743    4.1137 H   0  0  0  0  0  0  0  0  0  0  0  0
    1.5017    1.0136    4.8785 H   0  0  0  0  0  0  0  0  0  0  0  0
    3.5695    0.3837    4.1402 H   0  0  0  0  0  0  0  0  0  0  0  0
    3.0339   -1.1623    3.3709 H   0  0  0  0  0  0  0  0  0  0  0  0
    2.8475   -0.8548    5.1770 H   0  0  0  0  0  0  0  0  0  0  0  0
    0.4176    1.7715    2.9975 H   0  0  0  0  0  0  0  0  0  0  0  0
    2.1580    1.7673    2.7271 H   0  0  0  0  0  0  0  0  0  0  0  0
    0.8610    1.2616    0.7892 H   0  0  0  0  0  0  0  0  0  0  0  0
    0.0602   -1.4208    1.8512 H   0  0  0  0  0  0  0  0  0  0  0  0
   -2.7331   -1.1305    1.7435 H   0  0  0  0  0  0  0  0  0  0  0  0
   -3.0134   -2.9984    0.2185 H   0  0  0  0  0  0  0  0  0  0  0  0
   -1.3191   -2.8097    0.6945 H   0  0  0  0  0  0  0  0  0  0  0  0
    0.4062   -2.3686   -0.9380 H   0  0  0  0  0  0  0  0  0  0  0  0
    1.0869   -2.3008   -3.2407 H   0  0  0  0  0  0  0  0  0  0  0  0
   -0.6162   -2.1985   -5.0612 H   0  0  0  0  0  0  0  0  0  0  0  0
   -3.0181   -2.1597   -4.3810 H   0  0  0  0  0  0  0  0  0  0  0  0
   -3.6979   -2.2172   -2.0835 H   0  0  0  0  0  0  0  0  0  0  0  0
   -3.3729   -0.0314   -0.9969 H   0  0  0  0  0  0  0  0  0  0  0  0
   -6.8149    1.5672    1.5771 H   0  0  0  0  0  0  0  0  0  0  0  0
   -7.4226   -0.0245    1.0441 H   0  0  0  0  0  0  0  0  0  0  0  0
   -9.3660    1.8892    1.1292 H   0  0  0  0  0  0  0  0  0  0  0  0
  -10.8085    3.0632   -0.4947 H   0  0  0  0  0  0  0  0  0  0  0  0
  -10.0105    3.4446   -2.8530 H   0  0  0  0  0  0  0  0  0  0  0  0
   -7.7882    2.6416   -3.5500 H   0  0  0  0  0  0  0  0  0  0  0  0
   -6.3589    1.4627   -1.8914 H   0  0  0  0  0  0  0  0  0  0  0  0
    3.5106    1.6763    1.2233 H   0  0  0  0  0  0  0  0  0  0  0  0
    4.6387   -0.8853    0.1137 H   0  0  0  0  0  0  0  0  0  0  0  0
    4.0667    0.5878   -1.6069 H   0  0  0  0  0  0  0  0  0  0  0  0
    4.8895    1.9982   -0.8775 H   0  0  0  0  0  0  0  0  0  0  0  0
    7.2730    2.1480   -0.9630 H   0  0  0  0  0  0  0  0  0  0  0  0
    9.3679    1.4762   -2.1752 H   0  0  0  0  0  0  0  0  0  0  0  0
    9.3544   -0.5535   -3.5468 H   0  0  0  0  0  0  0  0  0  0  0  0
    7.3515   -1.9246   -3.7490 H   0  0  0  0  0  0  0  0  0  0  0  0
    5.2693   -1.2679   -2.5509 H   0  0  0  0  0  0  0  0  0  0  0  0
    8.0082    0.3137    1.3966 H   0  0  0  0  0  0  0  0  0  0  0  0
  1  2  1  0
  2  3  1  0
  2  4  1  0
  4  5  1  0
  5  6  1  0
  6  7  1  0
  7  8  2  0
  7  9  1  0
  9 10  1  0
 10 11  1  0
 11 12  2  0
 12 13  1  0
 13 14  2  0
 14 15  1  0
 15 16  2  0
  9 17  1  0
 17 18  1  0
 18 19  2  0
 18 20  1  0
 20 21  1  0
 21 22  1  0
 22 23  2  0
 23 24  1  0
 24 25  2  0
 25 26  1  0
 26 27  2  0
  5 28  1  0
 28 29  2  0
 28 30  1  0
 30 31  1  0
 31 32  1  0
 32 33  1  0
 33 34  2  0
 34 35  1  0
 35 36  2  0
 36 37  1  0
 37 38  2  0
 31 39  1  0
 39 40  1  0
 39 41  2  0
 16 11  1  0
 27 22  1  0
 38 33  1  0
  1 42  1  0
  1 43  1  0
  1 44  1  0
  2 45  1  0
  3 46  1  0
  3 47  1  0
  3 48  1  0
  4 49  1  0
  4 50  1  0
  5 51  1  6
  6 52  1  0
  9 53  1  1
 10 54  1  0
 10 55  1  0
 12 56  1  0
 13 57  1  0
 14 58  1  0
 15 59  1  0
 16 60  1  0
 17 61  1  0
 21 62  1  0
 21 63  1  0
 23 64  1  0
 24 65  1  0
 25 66  1  0
 26 67  1  0
 27 68  1  0
 30 69  1  0
 31 70  1  6
 32 71  1  0
 32 72  1  0
 34 73  1  0
 35 74  1  0
 36 75  1  0
 37 76  1  0
 38 77  1  0
 40 78  1  0
M  END
$$$$
[H]C1=C(C(=O)[O-])N2C(=O)/C(=C(\[H])c3oc4c([H])c([H])c([H])c([H])c4c3[H])[C@@]2([H])S1
     RDKit          3D

 29 32  0  0  0  0  0  0  0  0999 V2000
   -6.2003    0.6657    0.3379 O   0  0  0  0  0  0  0  0  0  0  0  0
   -5.5577    0.2642   -0.8166 C   0  0  0  0  0  0  0  0  0  0  0  0
   -6.2645    0.1234   -1.8598 O   0  0  0  0  0  0  0  0  0  0  0  0
   -4.1187    0.0237   -0.7837 C   0  0  0  0  0  0  0  0  0  0  0  0
   -3.4806   -0.3627   -1.8706 C   0  0  0  0  0  0  0  0  0  0  0  0
   -1.7633   -0.5340   -1.3937 S   0  0  0  0  0  0  0  0  0  0  0  0
   -1.9421    0.6018    0.0562 C   0  0  1  0  0  0  0  0  0  0  0  0
   -3.3320    0.1527    0.3582 N   0  0  0  0  0  0  0  0  0  0  0  0
   -2.8807    0.1509    1.7304 C   0  0  0  0  0  0  0  0  0  0  0  0
   -3.4448    0.1894    2.8444 O   0  0  0  0  0  0  0  0  0  0  0  0
   -1.4776    0.0854    1.3305 C   0  0  0  0  0  0  0  0  0  0  0  0
   -0.3464   -0.2739    1.8821 C   0  0  0  0  0  0  0  0  0  0  0  0
    0.9124   -0.1954    1.1374 C   0  0  0  0  0  0  0  0  0  0  0  0
    1.9715   -1.0758    1.2060 C   0  0  0  0  0  0  0  0  0  0  0  0
    2.9619   -0.6289    0.3367 C   0  0  0  0  0  0  0  0  0  0  0  0
    4.2114   -1.1086    0.0072 C   0  0  0  0  0  0  0  0  0  0  0  0
    4.9612   -0.4050   -0.9186 C   0  0  0  0  0  0  0  0  0  0  0  0
    4.4726    0.7552   -1.5041 C   0  0  0  0  0  0  0  0  0  0  0  0
    3.2160    1.1892   -1.1372 C   0  0  0  0  0  0  0  0  0  0  0  0
    2.4327    0.5187   -0.2175 C   0  0  0  0  0  0  0  0  0  0  0  0
    1.2269    0.7415    0.2772 O   0  0  0  0  0  0  0  0  0  0  0  0
   -3.8648   -0.5413   -2.8262 H   0  0  0  0  0  0  0  0  0  0  0  0
   -1.8508    1.6547   -0.1828 H   0  0  0  0  0  0  0  0  0  0  0  0
   -0.3011   -0.6452    2.9185 H   0  0  0  0  0  0  0  0  0  0  0  0
    2.0257   -1.9634    1.8291 H   0  0  0  0  0  0  0  0  0  0  0  0
    4.6128   -1.9976    0.4417 H   0  0  0  0  0  0  0  0  0  0  0  0
    5.9416   -0.7740   -1.1828 H   0  0  0  0  0  0  0  0  0  0  0  0
    5.0846    1.2977   -2.2352 H   0  0  0  0  0  0  0  0  0  0  0  0
    2.7940    2.0912   -1.5693 H   0  0  0  0  0  0  0  0  0  0  0  0
  1  2  1  0
  2  3  2  0
  2  4  1  0
  4  5  2  0
  5  6  1  0
  6  7  1  0
  7  8  1  0
  8  9  1  0
  9 10  2  0
  9 11  1  0
 11 12  2  0
 12 13  1  0
 13 14  2  0
 14 15  1  0
 15 16  2  0
 16 17  1  0
 17 18  2  0
 18 19  1  0
 19 20  2  0
 20 21  1  0
  8  4  1  0
 21 13  1  0
 11  7  1  0
 20 15  1  0
  5 22  1  0
  7 23  1  6
 12 24  1  0
 14 25  1  0
 16 26  1  0
 17 27  1  0
 18 28  1  0
 19 29  1  0
M  CHG  1   1  -1
M  END
$$$$
[H]c1nc(N2C([H])([H])C([H])([H])N(c3c([H])c([H])c([H])c(OC(=O)C([H])([H])[H])c3Cl)C([H])([H])C2(C([H])([H])[H])C([H])([H])[H])c2c([H])c([H])c(Cl)c([H])c2n1
     RDKit          3D

 52 55  0  0  0  0  0  0  0  0999 V2000
    6.2650    1.3905    0.7706 C   0  0  0  0  0  0  0  0  0  0  0  0
    5.7989    0.4891   -0.2029 O   0  0  0  0  0  0  0  0  0  0  0  0
    4.7347   -0.3173    0.1733 C   0  0  0  0  0  0  0  0  0  0  0  0
    3.4533    0.1435   -0.0566 C   0  0  0  0  0  0  0  0  0  0  0  0
    3.2598    1.7110   -0.7942 Cl  0  0  0  0  0  0  0  0  0  0  0  0
    2.3940   -0.6507    0.3136 C   0  0  0  0  0  0  0  0  0  0  0  0
    1.0568   -0.2490    0.1022 N   0  0  0  0  0  0  0  0  0  0  0  0
    0.5862   -0.0828   -1.2555 C   0  0  0  0  0  0  0  0  0  0  0  0
   -0.9193   -0.2854   -1.3310 C   0  0  0  0  0  0  0  0  0  0  0  0
   -1.2849   -1.7405   -1.3355 C   0  0  0  0  0  0  0  0  0  0  0  0
   -1.2959    0.2770   -2.7183 C   0  0  0  0  0  0  0  0  0  0  0  0
   -1.6125    0.4082   -0.2919 N   0  0  0  0  0  0  0  0  0  0  0  0
   -2.9973    0.6608   -0.4680 C   0  0  0  0  0  0  0  0  0  0  0  0
   -3.9885   -0.0243    0.1860 C   0  0  0  0  0  0  0  0  0  0  0  0
   -5.3369    0.2470   -0.0657 C   0  0  0  0  0  0  0  0  0  0  0  0
   -6.3286   -0.4362    0.5995 C   0  0  0  0  0  0  0  0  0  0  0  0
   -6.0206   -1.4001    1.5264 C   0  0  0  0  0  0  0  0  0  0  0  0
   -7.3107   -2.2628    2.3660 Cl  0  0  0  0  0  0  0  0  0  0  0  0
   -4.6962   -1.6634    1.7717 C   0  0  0  0  0  0  0  0  0  0  0  0
   -3.6850   -0.9833    1.1095 C   0  0  0  0  0  0  0  0  0  0  0  0
   -5.6521    1.2098   -0.9752 N   0  0  0  0  0  0  0  0  0  0  0  0
   -4.6839    1.8786   -1.6115 C   0  0  0  0  0  0  0  0  0  0  0  0
   -3.4038    1.6111   -1.3644 N   0  0  0  0  0  0  0  0  0  0  0  0
   -0.9251    0.8598    0.8820 C   0  0  0  0  0  0  0  0  0  0  0  0
    0.2063   -0.0278    1.2471 C   0  0  0  0  0  0  0  0  0  0  0  0
    2.6448   -1.8942    0.9089 C   0  0  0  0  0  0  0  0  0  0  0  0
    3.9212   -2.3597    1.1410 C   0  0  0  0  0  0  0  0  0  0  0  0
    4.9756   -1.5540    0.7650 C   0  0  0  0  0  0  0  0  0  0  0  0
    7.4003    2.3090    0.4898 C   0  0  0  0  0  0  0  0  0  0  0  0
    5.7143    1.4296    1.9131 O   0  0  0  0  0  0  0  0  0  0  0  0
    1.0429   -0.7961   -1.9662 H   0  0  0  0  0  0  0  0  0  0  0  0
    0.8616    0.9360   -1.5843 H   0  0  0  0  0  0  0  0  0  0  0  0
   -2.3614   -1.8669   -1.6083 H   0  0  0  0  0  0  0  0  0  0  0  0
   -1.1478   -2.1711   -0.3240 H   0  0  0  0  0  0  0  0  0  0  0  0
   -0.6593   -2.2729   -2.0953 H   0  0  0  0  0  0  0  0  0  0  0  0
   -0.5940   -0.1349   -3.4729 H   0  0  0  0  0  0  0  0  0  0  0  0
   -1.1749    1.3759   -2.7382 H   0  0  0  0  0  0  0  0  0  0  0  0
   -2.3068   -0.0643   -3.0177 H   0  0  0  0  0  0  0  0  0  0  0  0
   -7.3754   -0.1949    0.3741 H   0  0  0  0  0  0  0  0  0  0  0  0
   -4.4236   -2.4172    2.4966 H   0  0  0  0  0  0  0  0  0  0  0  0
   -2.6467   -1.1854    1.3176 H   0  0  0  0  0  0  0  0  0  0  0  0
   -4.8974    2.6600   -2.3491 H   0  0  0  0  0  0  0  0  0  0  0  0
   -1.6448    1.0103    1.7388 H   0  0  0  0  0  0  0  0  0  0  0  0
   -0.4713    1.8752    0.6589 H   0  0  0  0  0  0  0  0  0  0  0  0
    0.7711    0.3312    2.1313 H   0  0  0  0  0  0  0  0  0  0  0  0
   -0.1920   -1.0314    1.5525 H   0  0  0  0  0  0  0  0  0  0  0  0
    1.8062   -2.5240    1.2026 H   0  0  0  0  0  0  0  0  0  0  0  0
    4.1034   -3.3245    1.6028 H   0  0  0  0  0  0  0  0  0  0  0  0
    5.9985   -1.8958    0.9361 H   0  0  0  0  0  0  0  0  0  0  0  0
    7.9903    1.9666   -0.3828 H   0  0  0  0  0  0  0  0  0  0  0  0
    8.0407    2.3802    1.4042 H   0  0  0  0  0  0  0  0  0  0  0  0
    7.0112    3.3555    0.3284 H   0  0  0  0  0  0  0  0  0  0  0  0
  1  2  1  0
  2  3  1  0
  3  4  2  0
  4  5  1  0
  4  6  1  0
  6  7  1  0
  7  8  1  0
  8  9  1  0
  9 10  1  0
  9 11  1  0
  9 12  1  0
 12 13  1  0
 13 14  1  0
 14 15  1  0
 15 16  2  0
 16 17  1  0
 17 18  1  0
 17 19  2  0
 19 20  1  0
 15 21  1  0
 21 22  2  0
 22 23  1  0
 12 24  1  0
 24 25  1  0
  6 26  2  0
 26 27  1  0
 27 28  2  0
  1 29  1  0
  1 30  2  0
 28  3  1  0
 25  7  1  0
 23 13  2  0
 20 14  2  0
  8 31  1  0
  8 32  1  0
 10 33  1  0
 10 34  1  0
 10 35  1  0
 11 36  1  0
 11 37  1  0
 11 38  1  0
 16 39  1  0
 19 40  1  0
 20 41  1  0
 22 42  1  0
 24 43  1  0
 24 44  1  0
 25 45  1  0
 25 46  1  0
 26 47  1  0
 27 48  1  0
 28 49  1  0
 29 50  1  0
 29 51  1  0
 29 52  1  0
M  END
$$$$
[H]c1nc([H])c(-c2c([H])c([H])c(N(C(=O)N3C(=O)N(C([H])([H])[H])C(=O)C3(C([H])([H])[H])C([H])([H])[H])C([H])([H])[H])c([H])c2[H])c([H])c1Cl
     RDKit          3D

 46 48  0  0  0  0  0  0  0  0999 V2000
   -5.8187    1.3568   -2.2115 C   0  0  0  0  0  0  0  0  0  0  0  0
   -4.7125    1.1481   -1.3106 N   0  0  0  0  0  0  0  0  0  0  0  0
   -3.5090    0.3583   -1.5037 C   0  0  0  0  0  0  0  0  0  0  0  0
   -3.2913   -0.2827   -2.5521 O   0  0  0  0  0  0  0  0  0  0  0  0
   -2.7091    0.4591   -0.3448 N   0  0  0  0  0  0  0  0  0  0  0  0
   -1.3195    0.3699   -0.1520 C   0  0  0  0  0  0  0  0  0  0  0  0
   -0.9203    0.3666    1.1167 O   0  0  0  0  0  0  0  0  0  0  0  0
   -0.2521    0.2850   -1.0318 N   0  0  0  0  0  0  0  0  0  0  0  0
   -0.3359    0.4666   -2.4501 C   0  0  0  0  0  0  0  0  0  0  0  0
    1.0878    0.0418   -0.5066 C   0  0  0  0  0  0  0  0  0  0  0  0
    1.4227   -1.2351   -0.1214 C   0  0  0  0  0  0  0  0  0  0  0  0
    2.6939   -1.4955    0.3833 C   0  0  0  0  0  0  0  0  0  0  0  0
    3.6370   -0.4872    0.5067 C   0  0  0  0  0  0  0  0  0  0  0  0
    3.2866    0.7810    0.1179 C   0  0  0  0  0  0  0  0  0  0  0  0
    2.0110    1.0344   -0.3869 C   0  0  0  0  0  0  0  0  0  0  0  0
    4.9569   -0.8184    1.0427 C   0  0  0  0  0  0  0  0  0  0  0  0
    5.7109    0.0689    1.7677 C   0  0  0  0  0  0  0  0  0  0  0  0
    6.9207   -0.2889    2.2389 N   0  0  0  0  0  0  0  0  0  0  0  0
    7.4510   -1.5177    2.0289 C   0  0  0  0  0  0  0  0  0  0  0  0
    6.7082   -2.4230    1.3023 C   0  0  0  0  0  0  0  0  0  0  0  0
    7.3513   -4.0407    0.9990 Cl  0  0  0  0  0  0  0  0  0  0  0  0
    5.4670   -2.0831    0.8081 C   0  0  0  0  0  0  0  0  0  0  0  0
   -3.7341    0.6392    0.7144 C   0  0  0  0  0  0  0  0  0  0  0  0
   -3.2058    1.1145    2.0038 C   0  0  0  0  0  0  0  0  0  0  0  0
   -4.5418   -0.6215    0.8245 C   0  0  0  0  0  0  0  0  0  0  0  0
   -4.5548    1.6903    0.0068 C   0  0  0  0  0  0  0  0  0  0  0  0
   -4.9909    2.7653    0.4514 O   0  0  0  0  0  0  0  0  0  0  0  0
   -6.3629    2.2621   -1.8697 H   0  0  0  0  0  0  0  0  0  0  0  0
   -5.4371    1.6011   -3.2369 H   0  0  0  0  0  0  0  0  0  0  0  0
   -6.4898    0.4710   -2.2698 H   0  0  0  0  0  0  0  0  0  0  0  0
   -1.0210    1.3048   -2.6632 H   0  0  0  0  0  0  0  0  0  0  0  0
    0.6889    0.7611   -2.8750 H   0  0  0  0  0  0  0  0  0  0  0  0
   -0.5656   -0.4469   -3.0305 H   0  0  0  0  0  0  0  0  0  0  0  0
    0.6985   -2.0405   -0.2098 H   0  0  0  0  0  0  0  0  0  0  0  0
    2.9366   -2.4996    0.6785 H   0  0  0  0  0  0  0  0  0  0  0  0
    4.0238    1.5736    0.2138 H   0  0  0  0  0  0  0  0  0  0  0  0
    1.7734    2.0464   -0.6822 H   0  0  0  0  0  0  0  0  0  0  0  0
    5.3175    1.0770    1.9614 H   0  0  0  0  0  0  0  0  0  0  0  0
    8.4399   -1.7621    2.4330 H   0  0  0  0  0  0  0  0  0  0  0  0
    4.9006   -2.8239    0.2338 H   0  0  0  0  0  0  0  0  0  0  0  0
   -2.8396    0.2669    2.6133 H   0  0  0  0  0  0  0  0  0  0  0  0
   -4.1021    1.4881    2.5991 H   0  0  0  0  0  0  0  0  0  0  0  0
   -2.5288    1.9652    1.9673 H   0  0  0  0  0  0  0  0  0  0  0  0
   -5.6062   -0.4610    0.5324 H   0  0  0  0  0  0  0  0  0  0  0  0
   -4.0905   -1.4310    0.1822 H   0  0  0  0  0  0  0  0  0  0  0  0
   -4.5449   -1.0045    1.8497 H   0  0  0  0  0  0  0  0  0  0  0  0
  1  2  1  0
  2  3  1  0
  3  4  2  0
  3  5  1  0
  5  6  1  0
  6  7  2  0
  6  8  1  0
  8  9  1  0
  8 10  1  0
 10 11  2  0
 11 12  1  0
 12 13  2  0
 13 14  1  0
 14 15  2  0
 13 16  1  0
 16 17  2  0
 17 18  1  0
 18 19  2  0
 19 20  1  0
 20 21  1  0
 20 22  2  0
  5 23  1  0
 23 24  1  0
 23 25  1  0
 23 26  1  0
 26 27  2  0
 26  2  1  0
 15 10  1  0
 22 16  1  0
  1 28  1  0
  1 29  1  0
  1 30  1  0
  9 31  1  0
  9 32  1  0
  9 33  1  0
 11 34  1  0
 12 35  1  0
 14 36  1  0
 15 37  1  0
 17 38  1  0
 19 39  1  0
 22 40  1  0
 24 41  1  0
 24 42  1  0
 24 43  1  0
 25 44  1  0
 25 45  1  0
 25 46  1  0
M  END
$$$$
[H]N=C(N([H])[H])N([H])c1c([H])c([H])c(OC2(C(=O)N([H])C3([H])C([H])([H])C([H])([H])C([H])([H])C([H])([H])C3([H])[H])C([H])([H])C2([H])[H])c([H])c1[H]
     RDKit          3D

 47 49  0  0  0  0  0  0  0  0999 V2000
    6.6078   -2.9668    0.6765 N   0  0  0  0  0  0  0  0  0  0  0  0
    6.3711   -1.5682    0.6143 C   0  0  0  0  0  0  0  0  0  0  0  0
    6.5169   -0.8720    1.6945 N   0  0  0  0  0  0  0  0  0  0  0  0
    5.9923   -0.9134   -0.5683 N   0  0  0  0  0  0  0  0  0  0  0  0
    4.7433   -0.3039   -0.7482 C   0  0  0  0  0  0  0  0  0  0  0  0
    3.7730   -0.2880    0.2302 C   0  0  0  0  0  0  0  0  0  0  0  0
    2.5383    0.3341    0.0132 C   0  0  0  0  0  0  0  0  0  0  0  0
    2.2425    0.9506   -1.1724 C   0  0  0  0  0  0  0  0  0  0  0  0
    1.0512    1.5792   -1.4445 O   0  0  0  0  0  0  0  0  0  0  0  0
   -0.0409    1.7094   -0.5946 C   0  0  0  0  0  0  0  0  0  0  0  0
    0.1130    2.4211    0.7308 C   0  0  0  0  0  0  0  0  0  0  0  0
   -0.4768    3.1761   -0.3731 C   0  0  0  0  0  0  0  0  0  0  0  0
   -1.1661    0.7820   -0.8091 C   0  0  0  0  0  0  0  0  0  0  0  0
   -1.1710    0.1090   -1.8919 O   0  0  0  0  0  0  0  0  0  0  0  0
   -2.2284    0.5895    0.0887 N   0  0  0  0  0  0  0  0  0  0  0  0
   -3.3049   -0.3412   -0.1901 C   0  0  0  0  0  0  0  0  0  0  0  0
   -4.5607    0.4507   -0.4568 C   0  0  0  0  0  0  0  0  0  0  0  0
   -5.4495    0.3265    0.7600 C   0  0  0  0  0  0  0  0  0  0  0  0
   -5.9521   -1.1076    0.7604 C   0  0  0  0  0  0  0  0  0  0  0  0
   -4.8050   -2.0246    0.9359 C   0  0  0  0  0  0  0  0  0  0  0  0
   -3.4551   -1.3849    0.8528 C   0  0  0  0  0  0  0  0  0  0  0  0
    3.2230    0.9306   -2.1534 C   0  0  0  0  0  0  0  0  0  0  0  0
    4.4470    0.3246   -1.9645 C   0  0  0  0  0  0  0  0  0  0  0  0
    7.5764   -3.3210    0.8892 H   0  0  0  0  0  0  0  0  0  0  0  0
    5.8209   -3.6176    0.5098 H   0  0  0  0  0  0  0  0  0  0  0  0
    6.3562    0.1662    1.7111 H   0  0  0  0  0  0  0  0  0  0  0  0
    6.7093   -0.8975   -1.3439 H   0  0  0  0  0  0  0  0  0  0  0  0
    3.9857   -0.7736    1.1837 H   0  0  0  0  0  0  0  0  0  0  0  0
    1.8118    0.3207    0.8077 H   0  0  0  0  0  0  0  0  0  0  0  0
   -0.5430    2.0878    1.5537 H   0  0  0  0  0  0  0  0  0  0  0  0
    1.1606    2.6234    1.0930 H   0  0  0  0  0  0  0  0  0  0  0  0
    0.1439    3.9702   -0.8574 H   0  0  0  0  0  0  0  0  0  0  0  0
   -1.5597    3.3737   -0.3651 H   0  0  0  0  0  0  0  0  0  0  0  0
   -2.2455    1.1368    0.9930 H   0  0  0  0  0  0  0  0  0  0  0  0
   -3.0586   -0.8294   -1.1653 H   0  0  0  0  0  0  0  0  0  0  0  0
   -5.1453    0.0183   -1.3075 H   0  0  0  0  0  0  0  0  0  0  0  0
   -4.2862    1.5009   -0.6386 H   0  0  0  0  0  0  0  0  0  0  0  0
   -4.8255    0.4588    1.6569 H   0  0  0  0  0  0  0  0  0  0  0  0
   -6.2760    1.0637    0.6834 H   0  0  0  0  0  0  0  0  0  0  0  0
   -6.5032   -1.2665   -0.1928 H   0  0  0  0  0  0  0  0  0  0  0  0
   -6.6501   -1.2051    1.6030 H   0  0  0  0  0  0  0  0  0  0  0  0
   -4.8469   -2.7863    0.1100 H   0  0  0  0  0  0  0  0  0  0  0  0
   -4.9205   -2.6128    1.8677 H   0  0  0  0  0  0  0  0  0  0  0  0
   -3.2831   -0.8843    1.8506 H   0  0  0  0  0  0  0  0  0  0  0  0
   -2.6630   -2.1547    0.7802 H   0  0  0  0  0  0  0  0  0  0  0  0
    3.0079    1.4144   -3.1073 H   0  0  0  0  0  0  0  0  0  0  0  0
    5.2251    0.3012   -2.7142 H   0  0  0  0  0  0  0  0  0  0  0  0
  1  2  1  0
  2  3  2  3
  2  4  1  0
  4  5  1  0
  5  6  2  0
  6  7  1  0
  7  8  2  0
  8  9  1  0
  9 10  1  0
 10 11  1  0
 11 12  1  0
 10 13  1  0
 13 14  2  0
 13 15  1  0
 15 16  1  0
 16 17  1  0
 17 18  1  0
 18 19  1  0
 19 20  1  0
 20 21  1  0
  8 22  1  0
 22 23  2  0
 23  5  1  0
 12 10  1  0
 21 16  1  0
  1 24  1  0
  1 25  1  0
  3 26  1  0
  4 27  1  0
  6 28  1  0
  7 29  1  0
 11 30  1  0
 11 31  1  0
 12 32  1  0
 12 33  1  0
 15 34  1  0
 16 35  1  0
 17 36  1  0
 17 37  1  0
 18 38  1  0
 18 39  1  0
 19 40  1  0
 19 41  1  0
 20 42  1  0
 20 43  1  0
 21 44  1  0
 21 45  1  0
 22 46  1  0
 23 47  1  0
M  END
$$$$
[H]c1c([H])c([H])c(C([H])([H])n2nnc(C(=O)N([H])[H])c2-c2c([H])c([H])c(N([H])C(=O)C([H])([H])c3c([H])c([H])c(OC([H])([H])[H])c([H])c3[H])c([H])c2[H])c([H])c1[H]
     RDKit          3D

 56 59  0  0  0  0  0  0  0  0999 V2000
    8.3512    2.8327    0.2262 C   0  0  0  0  0  0  0  0  0  0  0  0
    7.8283    2.0537   -0.8310 O   0  0  0  0  0  0  0  0  0  0  0  0
    6.9220    1.0321   -0.6010 C   0  0  0  0  0  0  0  0  0  0  0  0
    6.5298    0.7795    0.6876 C   0  0  0  0  0  0  0  0  0  0  0  0
    5.6292   -0.2299    0.9530 C   0  0  0  0  0  0  0  0  0  0  0  0
    5.1030   -1.0068   -0.0676 C   0  0  0  0  0  0  0  0  0  0  0  0
    4.1386   -2.0854    0.2302 C   0  0  0  0  0  0  0  0  0  0  0  0
    2.7482   -1.5033    0.1789 C   0  0  0  0  0  0  0  0  0  0  0  0
    2.5983   -0.3109   -0.0803 O   0  0  0  0  0  0  0  0  0  0  0  0
    1.6747   -2.3648    0.4337 N   0  0  0  0  0  0  0  0  0  0  0  0
    0.3432   -1.9841    0.4324 C   0  0  0  0  0  0  0  0  0  0  0  0
   -0.1197   -0.7208    0.5374 C   0  0  0  0  0  0  0  0  0  0  0  0
   -1.4818   -0.3910    0.5088 C   0  0  0  0  0  0  0  0  0  0  0  0
   -2.3939   -1.3965    0.3669 C   0  0  0  0  0  0  0  0  0  0  0  0
   -1.9677   -2.7303    0.2528 C   0  0  0  0  0  0  0  0  0  0  0  0
   -0.6209   -2.9807    0.2898 C   0  0  0  0  0  0  0  0  0  0  0  0
   -3.8391   -1.1416    0.1761 C   0  0  0  0  0  0  0  0  0  0  0  0
   -4.8411   -1.9719    0.6151 C   0  0  0  0  0  0  0  0  0  0  0  0
   -5.9920   -1.5456    0.0196 N   0  0  0  0  0  0  0  0  0  0  0  0
   -5.6945   -0.5399   -0.7069 N   0  0  0  0  0  0  0  0  0  0  0  0
   -4.3751   -0.2342   -0.6530 N   0  0  0  0  0  0  0  0  0  0  0  0
   -3.8571    0.8890   -1.3621 C   0  0  0  0  0  0  0  0  0  0  0  0
   -4.1451    2.1756   -0.7141 C   0  0  0  0  0  0  0  0  0  0  0  0
   -5.4968    2.5467   -0.6374 C   0  0  0  0  0  0  0  0  0  0  0  0
   -5.8261    3.7613   -0.0845 C   0  0  0  0  0  0  0  0  0  0  0  0
   -4.8618    4.6112    0.3901 C   0  0  0  0  0  0  0  0  0  0  0  0
   -3.5331    4.2201    0.3016 C   0  0  0  0  0  0  0  0  0  0  0  0
   -3.1813    3.0281   -0.2389 C   0  0  0  0  0  0  0  0  0  0  0  0
   -4.7776   -3.0064    1.6311 C   0  0  0  0  0  0  0  0  0  0  0  0
   -5.8300   -4.0054    1.6562 N   0  0  0  0  0  0  0  0  0  0  0  0
   -3.8795   -3.1111    2.4994 O   0  0  0  0  0  0  0  0  0  0  0  0
    5.5070   -0.7430   -1.3732 C   0  0  0  0  0  0  0  0  0  0  0  0
    6.4175    0.2793   -1.6297 C   0  0  0  0  0  0  0  0  0  0  0  0
    7.4965    3.3664    0.7103 H   0  0  0  0  0  0  0  0  0  0  0  0
    8.7940    2.1974    1.0291 H   0  0  0  0  0  0  0  0  0  0  0  0
    9.0818    3.5319   -0.2162 H   0  0  0  0  0  0  0  0  0  0  0  0
    6.9224    1.3678    1.5035 H   0  0  0  0  0  0  0  0  0  0  0  0
    5.2987   -0.4559    1.9572 H   0  0  0  0  0  0  0  0  0  0  0  0
    4.1456   -2.8677   -0.5758 H   0  0  0  0  0  0  0  0  0  0  0  0
    4.3340   -2.5866    1.1889 H   0  0  0  0  0  0  0  0  0  0  0  0
    1.9203   -3.4009    0.6490 H   0  0  0  0  0  0  0  0  0  0  0  0
    0.5217    0.1433    0.6686 H   0  0  0  0  0  0  0  0  0  0  0  0
   -1.7730    0.6385    0.6265 H   0  0  0  0  0  0  0  0  0  0  0  0
   -2.7036   -3.4932    0.1024 H   0  0  0  0  0  0  0  0  0  0  0  0
   -0.2993   -4.0246    0.2015 H   0  0  0  0  0  0  0  0  0  0  0  0
   -4.2674    0.9274   -2.4180 H   0  0  0  0  0  0  0  0  0  0  0  0
   -2.7423    0.7926   -1.5329 H   0  0  0  0  0  0  0  0  0  0  0  0
   -6.2586    1.9039   -1.0059 H   0  0  0  0  0  0  0  0  0  0  0  0
   -6.8969    4.0090   -0.0454 H   0  0  0  0  0  0  0  0  0  0  0  0
   -5.1540    5.5559    0.8176 H   0  0  0  0  0  0  0  0  0  0  0  0
   -2.7835    4.8807    0.6704 H   0  0  0  0  0  0  0  0  0  0  0  0
   -2.1325    2.7702   -0.2930 H   0  0  0  0  0  0  0  0  0  0  0  0
   -5.6543   -5.0082    1.5452 H   0  0  0  0  0  0  0  0  0  0  0  0
   -6.7926   -3.6318    1.7966 H   0  0  0  0  0  0  0  0  0  0  0  0
    5.1172   -1.3279   -2.1878 H   0  0  0  0  0  0  0  0  0  0  0  0
    6.7492    0.5060   -2.6380 H   0  0  0  0  0  0  0  0  0  0  0  0
  1  2  1  0
  2  3  1  0
  3  4  2  0
  4  5  1  0
  5  6  2  0
  6  7  1  0
  7  8  1  0
  8  9  2  0
  8 10  1  0
 10 11  1  0
 11 12  2  0
 12 13  1  0
 13 14  2  0
 14 15  1  0
 15 16  2  0
 14 17  1  0
 17 18  2  0
 18 19  1  0
 19 20  2  0
 20 21  1  0
 21 22  1  0
 22 23  1  0
 23 24  2  0
 24 25  1  0
 25 26  2  0
 26 27  1  0
 27 28  2  0
 18 29  1  0
 29 30  1  0
 29 31  2  0
  6 32  1  0
 32 33  2  0
 33  3  1  0
 16 11  1  0
 21 17  1  0
 28 23  1  0
  1 34  1  0
  1 35  1  0
  1 36  1  0
  4 37  1  0
  5 38  1  0
  7 39  1  0
  7 40  1  0
 10 41  1  0
 12 42  1  0
 13 43  1  0
 15 44  1  0
 16 45  1  0
 22 46  1  0
 22 47  1  0
 24 48  1  0
 25 49  1  0
 26 50  1  0
 27 51  1  0
 28 52  1  0
 30 53  1  0
 30 54  1  0
 32 55  1  0
 33 56  1  0
M  END
$$$$
[H]c1nc(Cl)c([H])c([H])c1C(=O)N([H])c1c([H])c([H])c2c(c1[H])n([H])c(=O)n2C([H])([H])[H]
     RDKit          3D

 32 34  0  0  0  0  0  0  0  0999 V2000
   -5.4781    0.9593    0.2336 C   0  0  0  0  0  0  0  0  0  0  0  0
   -4.3770    0.0829   -0.1081 N   0  0  0  0  0  0  0  0  0  0  0  0
   -3.0536    0.3249    0.0304 C   0  0  0  0  0  0  0  0  0  0  0  0
   -2.3414    1.3984    0.5051 C   0  0  0  0  0  0  0  0  0  0  0  0
   -0.9668    1.3701    0.5305 C   0  0  0  0  0  0  0  0  0  0  0  0
   -0.2361    0.2682    0.0830 C   0  0  0  0  0  0  0  0  0  0  0  0
    1.1711    0.2744    0.1237 N   0  0  0  0  0  0  0  0  0  0  0  0
    2.0710   -0.7135   -0.2670 C   0  0  0  0  0  0  0  0  0  0  0  0
    1.7881   -1.8495   -0.7556 O   0  0  0  0  0  0  0  0  0  0  0  0
    3.5268   -0.4887   -0.1297 C   0  0  0  0  0  0  0  0  0  0  0  0
    4.0374    0.4056    0.7755 C   0  0  0  0  0  0  0  0  0  0  0  0
    5.3993    0.6353    0.9101 C   0  0  0  0  0  0  0  0  0  0  0  0
    6.2630   -0.0598    0.1065 C   0  0  0  0  0  0  0  0  0  0  0  0
    7.9984    0.1562    0.1968 Cl  0  0  0  0  0  0  0  0  0  0  0  0
    5.7671   -0.9487   -0.7937 N   0  0  0  0  0  0  0  0  0  0  0  0
    4.4469   -1.1560   -0.9081 C   0  0  0  0  0  0  0  0  0  0  0  0
   -0.9547   -0.7943   -0.3871 C   0  0  0  0  0  0  0  0  0  0  0  0
   -2.3636   -0.7755   -0.4174 C   0  0  0  0  0  0  0  0  0  0  0  0
   -3.2633   -1.6831   -0.8268 N   0  0  0  0  0  0  0  0  0  0  0  0
   -4.4796   -1.1506   -0.6341 C   0  0  0  0  0  0  0  0  0  0  0  0
   -5.5860   -1.6938   -0.8945 O   0  0  0  0  0  0  0  0  0  0  0  0
   -5.1545    1.9975   -0.0204 H   0  0  0  0  0  0  0  0  0  0  0  0
   -5.7514    0.9188    1.3019 H   0  0  0  0  0  0  0  0  0  0  0  0
   -6.3752    0.7467   -0.3705 H   0  0  0  0  0  0  0  0  0  0  0  0
   -2.8831    2.2579    0.8548 H   0  0  0  0  0  0  0  0  0  0  0  0
   -0.3966    2.2230    0.9077 H   0  0  0  0  0  0  0  0  0  0  0  0
    1.6087    1.1828    0.5087 H   0  0  0  0  0  0  0  0  0  0  0  0
    3.3366    0.9527    1.4202 H   0  0  0  0  0  0  0  0  0  0  0  0
    5.7560    1.3482    1.6353 H   0  0  0  0  0  0  0  0  0  0  0  0
    4.0923   -1.8662   -1.6307 H   0  0  0  0  0  0  0  0  0  0  0  0
   -0.5086   -1.6996   -0.7590 H   0  0  0  0  0  0  0  0  0  0  0  0
   -3.0930   -2.6238   -1.2211 H   0  0  0  0  0  0  0  0  0  0  0  0
  1  2  1  0
  2  3  1  0
  3  4  2  0
  4  5  1  0
  5  6  2  0
  6  7  1  0
  7  8  1  0
  8  9  2  0
  8 10  1  0
 10 11  2  0
 11 12  1  0
 12 13  2  0
 13 14  1  0
 13 15  1  0
 15 16  2  0
  6 17  1  0
 17 18  2  0
 18 19  1  0
 19 20  1  0
 20 21  2  0
 20  2  1  0
 18  3  1  0
 16 10  1  0
  1 22  1  0
  1 23  1  0
  1 24  1  0
  4 25  1  0
  5 26  1  0
  7 27  1  0
 11 28  1  0
 12 29  1  0
 16 30  1  0
 17 31  1  0
 19 32  1  0
M  END
$$$$
[H]c1nc(N([H])c2c([H])c([H])c(N3C([H])([H])C([H])([H])N([H])C([H])([H])C3([H])[H])c([H])c2OC([H])([H])[H])nc(N([H])c2c([H])c([H])c([H])c3c2c([H])nn3[H])c1Cl
     RDKit          3D

 55 59  0  0  0  0  0  0  0  0999 V2000
   -1.5735   -1.6996   -3.0098 C   0  0  0  0  0  0  0  0  0  0  0  0
   -0.9065   -1.0921   -1.9306 O   0  0  0  0  0  0  0  0  0  0  0  0
   -1.6143   -0.4387   -0.9057 C   0  0  0  0  0  0  0  0  0  0  0  0
   -2.9743   -0.4296   -1.0196 C   0  0  0  0  0  0  0  0  0  0  0  0
   -3.7194    0.1974   -0.0423 C   0  0  0  0  0  0  0  0  0  0  0  0
   -3.0899    0.7963    1.0185 C   0  0  0  0  0  0  0  0  0  0  0  0
   -1.6989    0.7692    1.1053 C   0  0  0  0  0  0  0  0  0  0  0  0
   -0.9244    0.1581    0.1573 C   0  0  0  0  0  0  0  0  0  0  0  0
    0.4884    0.0717    0.1486 N   0  0  0  0  0  0  0  0  0  0  0  0
    1.3658    0.5989    1.1051 C   0  0  0  0  0  0  0  0  0  0  0  0
    1.0546    1.2725    2.1894 N   0  0  0  0  0  0  0  0  0  0  0  0
    1.9611    1.7479    3.0639 C   0  0  0  0  0  0  0  0  0  0  0  0
    3.2941    1.5391    2.8475 C   0  0  0  0  0  0  0  0  0  0  0  0
    4.5383    2.1188    3.9271 Cl  0  0  0  0  0  0  0  0  0  0  0  0
    3.6762    0.8246    1.7023 C   0  0  0  0  0  0  0  0  0  0  0  0
    5.0200    0.5757    1.4231 N   0  0  0  0  0  0  0  0  0  0  0  0
    5.6364   -0.1006    0.3630 C   0  0  0  0  0  0  0  0  0  0  0  0
    4.9920   -0.6949   -0.6971 C   0  0  0  0  0  0  0  0  0  0  0  0
    5.6709   -1.3567   -1.7272 C   0  0  0  0  0  0  0  0  0  0  0  0
    7.0357   -1.4252   -1.6943 C   0  0  0  0  0  0  0  0  0  0  0  0
    7.7270   -0.8442   -0.6512 C   0  0  0  0  0  0  0  0  0  0  0  0
    9.0541   -0.7543   -0.3585 N   0  0  0  0  0  0  0  0  0  0  0  0
    9.1789   -0.0896    0.7629 N   0  0  0  0  0  0  0  0  0  0  0  0
    7.9771    0.2740    1.2396 C   0  0  0  0  0  0  0  0  0  0  0  0
    7.0400   -0.2044    0.3413 C   0  0  0  0  0  0  0  0  0  0  0  0
    2.7068    0.4056    0.9151 N   0  0  0  0  0  0  0  0  0  0  0  0
   -5.1519    0.2068   -0.1531 N   0  0  0  0  0  0  0  0  0  0  0  0
   -5.8970    0.9561    0.8187 C   0  0  0  0  0  0  0  0  0  0  0  0
   -7.2925    1.2875    0.4111 C   0  0  0  0  0  0  0  0  0  0  0  0
   -8.0090    0.2577   -0.2655 N   0  0  0  0  0  0  0  0  0  0  0  0
   -7.2400   -0.8695   -0.6854 C   0  0  0  0  0  0  0  0  0  0  0  0
   -5.8576   -0.4993   -1.1831 C   0  0  0  0  0  0  0  0  0  0  0  0
   -2.0473   -0.9621   -3.6943 H   0  0  0  0  0  0  0  0  0  0  0  0
   -2.3626   -2.4112   -2.6863 H   0  0  0  0  0  0  0  0  0  0  0  0
   -0.8098   -2.2784   -3.5853 H   0  0  0  0  0  0  0  0  0  0  0  0
   -3.4888   -0.9053   -1.8663 H   0  0  0  0  0  0  0  0  0  0  0  0
   -3.6269    1.2929    1.8004 H   0  0  0  0  0  0  0  0  0  0  0  0
   -1.2284    1.2539    1.9608 H   0  0  0  0  0  0  0  0  0  0  0  0
    0.9162   -0.4587   -0.6891 H   0  0  0  0  0  0  0  0  0  0  0  0
    1.6517    2.3040    3.9542 H   0  0  0  0  0  0  0  0  0  0  0  0
    5.6950    0.9807    2.1616 H   0  0  0  0  0  0  0  0  0  0  0  0
    3.9148   -0.6630   -0.7608 H   0  0  0  0  0  0  0  0  0  0  0  0
    5.0979   -1.7852   -2.5036 H   0  0  0  0  0  0  0  0  0  0  0  0
    7.6322   -1.9161   -2.4483 H   0  0  0  0  0  0  0  0  0  0  0  0
    9.7960   -1.1599   -0.9547 H   0  0  0  0  0  0  0  0  0  0  0  0
    7.7319    0.8220    2.1263 H   0  0  0  0  0  0  0  0  0  0  0  0
   -5.9200    0.3927    1.7736 H   0  0  0  0  0  0  0  0  0  0  0  0
   -5.3634    1.9391    0.9899 H   0  0  0  0  0  0  0  0  0  0  0  0
   -7.3390    2.2201   -0.2159 H   0  0  0  0  0  0  0  0  0  0  0  0
   -7.8605    1.5248    1.3577 H   0  0  0  0  0  0  0  0  0  0  0  0
   -8.6555    0.6197   -1.0081 H   0  0  0  0  0  0  0  0  0  0  0  0
   -7.1440   -1.5811    0.1560 H   0  0  0  0  0  0  0  0  0  0  0  0
   -7.7693   -1.3395   -1.5421 H   0  0  0  0  0  0  0  0  0  0  0  0
   -5.9193    0.0450   -2.1332 H   0  0  0  0  0  0  0  0  0  0  0  0
   -5.3690   -1.4936   -1.4088 H   0  0  0  0  0  0  0  0  0  0  0  0
  1  2  1  0
  2  3  1  0
  3  4  2  0
  4  5  1  0
  5  6  2  0
  6  7  1  0
  7  8  2  0
  8  9  1  0
  9 10  1  0
 10 11  2  0
 11 12  1  0
 12 13  2  0
 13 14  1  0
 13 15  1  0
 15 16  1  0
 16 17  1  0
 17 18  2  0
 18 19  1  0
 19 20  2  0
 20 21  1  0
 21 22  1  0
 22 23  1  0
 23 24  2  0
 24 25  1  0
 15 26  2  0
  5 27  1  0
 27 28  1  0
 28 29  1  0
 29 30  1  0
 30 31  1  0
 31 32  1  0
  8  3  1  0
 26 10  1  0
 32 27  1  0
 25 17  1  0
 25 21  2  0
  1 33  1  0
  1 34  1  0
  1 35  1  0
  4 36  1  0
  6 37  1  0
  7 38  1  0
  9 39  1  0
 12 40  1  0
 16 41  1  0
 18 42  1  0
 19 43  1  0
 20 44  1  0
 22 45  1  0
 24 46  1  0
 28 47  1  0
 28 48  1  0
 29 49  1  0
 29 50  1  0
 30 51  1  0
 31 52  1  0
 31 53  1  0
 32 54  1  0
 32 55  1  0
M  END
$$$$
[H]c1nc([H])c(C([H])([H])C([H])([H])C([H])([H])Oc2c([H])c([H])c(-c3c([H])c(C([H])([H])[H])c(C([H])([H])[H])c([H])c3C([H])([H])[H])c([H])c2[H])c([H])c1[H]
     RDKit          3D

 50 52  0  0  0  0  0  0  0  0999 V2000
   -7.7422    0.5647   -0.3244 C   0  0  0  0  0  0  0  0  0  0  0  0
   -6.2523    0.4379   -0.1950 C   0  0  0  0  0  0  0  0  0  0  0  0
   -5.5601   -0.5789   -0.8086 C   0  0  0  0  0  0  0  0  0  0  0  0
   -4.1679   -0.7043   -0.6926 C   0  0  0  0  0  0  0  0  0  0  0  0
   -3.4828   -1.8129   -1.3861 C   0  0  0  0  0  0  0  0  0  0  0  0
   -3.4445    0.1935    0.0455 C   0  0  0  0  0  0  0  0  0  0  0  0
   -4.1610    1.2242    0.6650 C   0  0  0  0  0  0  0  0  0  0  0  0
   -5.5282    1.3434    0.5480 C   0  0  0  0  0  0  0  0  0  0  0  0
   -6.2436    2.4559    1.2253 C   0  0  0  0  0  0  0  0  0  0  0  0
   -1.9997    0.0926    0.2002 C   0  0  0  0  0  0  0  0  0  0  0  0
   -1.3358   -1.0608    0.5590 C   0  0  0  0  0  0  0  0  0  0  0  0
    0.0361   -1.0753    0.6782 C   0  0  0  0  0  0  0  0  0  0  0  0
    0.8154    0.0479    0.4488 C   0  0  0  0  0  0  0  0  0  0  0  0
    2.1815    0.0586    0.5609 O   0  0  0  0  0  0  0  0  0  0  0  0
    2.9238   -1.0907    0.9250 C   0  0  0  0  0  0  0  0  0  0  0  0
    4.3986   -0.8258    0.9794 C   0  0  0  0  0  0  0  0  0  0  0  0
    4.8289   -0.3736   -0.4071 C   0  0  0  0  0  0  0  0  0  0  0  0
    6.2700   -0.0807   -0.4810 C   0  0  0  0  0  0  0  0  0  0  0  0
    7.1423   -1.0885   -0.8197 C   0  0  0  0  0  0  0  0  0  0  0  0
    8.5056   -0.8158   -0.8907 C   0  0  0  0  0  0  0  0  0  0  0  0
    9.0106    0.4397   -0.6306 C   0  0  0  0  0  0  0  0  0  0  0  0
    8.1155    1.4042   -0.3003 N   0  0  0  0  0  0  0  0  0  0  0  0
    6.7955    1.1698   -0.2242 C   0  0  0  0  0  0  0  0  0  0  0  0
    0.1643    1.2083    0.0894 C   0  0  0  0  0  0  0  0  0  0  0  0
   -1.2019    1.2243   -0.0298 C   0  0  0  0  0  0  0  0  0  0  0  0
   -8.0013    1.4702   -0.9400 H   0  0  0  0  0  0  0  0  0  0  0  0
   -8.2306    0.6829    0.6462 H   0  0  0  0  0  0  0  0  0  0  0  0
   -8.1154   -0.2995   -0.8996 H   0  0  0  0  0  0  0  0  0  0  0  0
   -6.1215   -1.3004   -1.3984 H   0  0  0  0  0  0  0  0  0  0  0  0
   -4.1055   -2.0424   -2.3059 H   0  0  0  0  0  0  0  0  0  0  0  0
   -3.5653   -2.7437   -0.7829 H   0  0  0  0  0  0  0  0  0  0  0  0
   -2.4929   -1.5863   -1.7753 H   0  0  0  0  0  0  0  0  0  0  0  0
   -3.5533    1.9173    1.2417 H   0  0  0  0  0  0  0  0  0  0  0  0
   -5.6225    3.3370    1.4014 H   0  0  0  0  0  0  0  0  0  0  0  0
   -7.1697    2.7172    0.6797 H   0  0  0  0  0  0  0  0  0  0  0  0
   -6.5729    2.0913    2.2319 H   0  0  0  0  0  0  0  0  0  0  0  0
   -1.9149   -1.9756    0.7557 H   0  0  0  0  0  0  0  0  0  0  0  0
    0.5594   -1.9725    0.9578 H   0  0  0  0  0  0  0  0  0  0  0  0
    2.7304   -1.9425    0.2308 H   0  0  0  0  0  0  0  0  0  0  0  0
    2.5373   -1.4141    1.9172 H   0  0  0  0  0  0  0  0  0  0  0  0
    4.9033   -1.7891    1.1896 H   0  0  0  0  0  0  0  0  0  0  0  0
    4.6045   -0.0567    1.7433 H   0  0  0  0  0  0  0  0  0  0  0  0
    4.5438   -1.1972   -1.1010 H   0  0  0  0  0  0  0  0  0  0  0  0
    4.2139    0.5362   -0.6579 H   0  0  0  0  0  0  0  0  0  0  0  0
    6.8421   -2.1025   -1.0407 H   0  0  0  0  0  0  0  0  0  0  0  0
    9.2144   -1.6081   -1.1593 H   0  0  0  0  0  0  0  0  0  0  0  0
   10.0682    0.6548   -0.6848 H   0  0  0  0  0  0  0  0  0  0  0  0
    6.1466    1.9980    0.0472 H   0  0  0  0  0  0  0  0  0  0  0  0
    0.7160    2.1156   -0.1023 H   0  0  0  0  0  0  0  0  0  0  0  0
   -1.6821    2.1526   -0.3139 H   0  0  0  0  0  0  0  0  0  0  0  0
  1  2  1  0
  2  3  2  0
  3  4  1  0
  4  5  1  0
  4  6  2  0
  6  7  1  0
  7  8  2  0
  8  9  1  0
  6 10  1  0
 10 11  2  0
 11 12  1  0
 12 13  2  0
 13 14  1  0
 14 15  1  0
 15 16  1  0
 16 17  1  0
 17 18  1  0
 18 19  2  0
 19 20  1  0
 20 21  2  0
 21 22  1  0
 22 23  2  0
 13 24  1  0
 24 25  2  0
  8  2  1  0
 25 10  1  0
 23 18  1  0
  1 26  1  0
  1 27  1  0
  1 28  1  0
  3 29  1  0
  5 30  1  0
  5 31  1  0
  5 32  1  0
  7 33  1  0
  9 34  1  0
  9 35  1  0
  9 36  1  0
 11 37  1  0
 12 38  1  0
 15 39  1  0
 15 40  1  0
 16 41  1  0
 16 42  1  0
 17 43  1  0
 17 44  1  0
 19 45  1  0
 20 46  1  0
 21 47  1  0
 23 48  1  0
 24 49  1  0
 25 50  1  0
M  END
$$$$
[H]Oc1c([H])c([H])c(C([H])([H])[C@@]([H])(C(=O)N([H])[C@]([H])(C(=O)N2C([H])([H])C([H])([H])C([H])([H])[C@@]2([H])C(=O)N([H])[C@]([H])(C(=O)N([H])[C@]([H])(C(=O)N([H])[H])C([H])([H])c2c([H])c([H])c([H])c([H])c2[H])C([H])([H])[H])C([H])([H])c2c([H])c([H])c([H])c([H])c2[H])N([H])[H])c([H])c1[H]
     RDKit          3D

 89 92  0  0  0  0  0  0  0  0999 V2000
    3.9039    1.7613   -0.6223 C   0  0  0  0  0  0  0  0  0  0  0  0
    3.4917    0.3632   -0.3011 C   0  0  2  0  0  0  0  0  0  0  0  0
    2.6835    0.2099    0.8661 N   0  0  0  0  0  0  0  0  0  0  0  0
    1.4041   -0.3837    0.9125 C   0  0  0  0  0  0  0  0  0  0  0  0
    0.8880   -0.8301   -0.1249 O   0  0  0  0  0  0  0  0  0  0  0  0
    0.6248   -0.5043    2.1759 C   0  0  2  0  0  0  0  0  0  0  0  0
    1.3830   -1.1345    3.2705 C   0  0  0  0  0  0  0  0  0  0  0  0
    0.4545   -2.1924    3.8164 C   0  0  0  0  0  0  0  0  0  0  0  0
   -0.4421   -2.5138    2.5953 C   0  0  0  0  0  0  0  0  0  0  0  0
   -0.6087   -1.1934    2.0411 N   0  0  0  0  0  0  0  0  0  0  0  0
   -1.8058   -0.6840    1.4995 C   0  0  0  0  0  0  0  0  0  0  0  0
   -1.7703    0.5598    1.1294 O   0  0  0  0  0  0  0  0  0  0  0  0
   -3.0822   -1.4117    1.3192 C   0  0  2  0  0  0  0  0  0  0  0  0
   -2.9083   -2.5723    0.3975 C   0  0  0  0  0  0  0  0  0  0  0  0
   -4.1357   -3.3683    0.1718 C   0  0  0  0  0  0  0  0  0  0  0  0
   -4.8974   -3.1481   -0.9455 C   0  0  0  0  0  0  0  0  0  0  0  0
   -6.0713   -3.9016   -1.1036 C   0  0  0  0  0  0  0  0  0  0  0  0
   -6.4570   -4.8376   -0.1721 C   0  0  0  0  0  0  0  0  0  0  0  0
   -5.6601   -5.0331    0.9451 C   0  0  0  0  0  0  0  0  0  0  0  0
   -4.5211   -4.3109    1.1122 C   0  0  0  0  0  0  0  0  0  0  0  0
   -4.1475   -0.5304    0.9182 N   0  0  0  0  0  0  0  0  0  0  0  0
   -4.2192    0.1852   -0.2955 C   0  0  0  0  0  0  0  0  0  0  0  0
   -3.3206    0.1230   -1.1871 O   0  0  0  0  0  0  0  0  0  0  0  0
   -5.4197    1.0514   -0.5283 C   0  0  1  0  0  0  0  0  0  0  0  0
   -6.3123    1.0330    0.5888 N   0  0  0  0  0  0  0  0  0  0  0  0
   -4.9740    2.4052   -0.9739 C   0  0  0  0  0  0  0  0  0  0  0  0
   -6.1074    3.3263   -1.2273 C   0  0  0  0  0  0  0  0  0  0  0  0
   -6.5788    4.1264   -0.2150 C   0  0  0  0  0  0  0  0  0  0  0  0
   -7.6372    4.9674   -0.4919 C   0  0  0  0  0  0  0  0  0  0  0  0
   -8.1994    4.9933   -1.7590 C   0  0  0  0  0  0  0  0  0  0  0  0
   -9.2784    5.8707   -1.9875 O   0  0  0  0  0  0  0  0  0  0  0  0
   -7.7213    4.1871   -2.7701 C   0  0  0  0  0  0  0  0  0  0  0  0
   -6.6648    3.3521   -2.4836 C   0  0  0  0  0  0  0  0  0  0  0  0
    4.7347   -0.4767   -0.2279 C   0  0  0  0  0  0  0  0  0  0  0  0
    4.9624   -1.2088    0.7495 O   0  0  0  0  0  0  0  0  0  0  0  0
    5.6426   -0.4149   -1.2980 N   0  0  0  0  0  0  0  0  0  0  0  0
    6.8744   -1.1260   -1.4531 C   0  0  1  0  0  0  0  0  0  0  0  0
    8.0781   -0.5087   -0.8593 C   0  0  0  0  0  0  0  0  0  0  0  0
    8.4504    0.8194   -1.3436 C   0  0  0  0  0  0  0  0  0  0  0  0
    9.2678    1.0755   -2.4375 C   0  0  0  0  0  0  0  0  0  0  0  0
    9.5815    2.3638   -2.8171 C   0  0  0  0  0  0  0  0  0  0  0  0
    9.0987    3.4400   -2.1291 C   0  0  0  0  0  0  0  0  0  0  0  0
    8.2843    3.2142   -1.0379 C   0  0  0  0  0  0  0  0  0  0  0  0
    7.9751    1.9260   -0.6653 C   0  0  0  0  0  0  0  0  0  0  0  0
    6.7929   -2.5511   -0.9634 C   0  0  0  0  0  0  0  0  0  0  0  0
    8.0289   -3.1485   -0.5450 N   0  0  0  0  0  0  0  0  0  0  0  0
    5.7679   -3.2298   -0.8935 O   0  0  0  0  0  0  0  0  0  0  0  0
    4.8813    2.0702   -0.2131 H   0  0  0  0  0  0  0  0  0  0  0  0
    3.1075    2.5214   -0.3842 H   0  0  0  0  0  0  0  0  0  0  0  0
    4.0193    1.8471   -1.7336 H   0  0  0  0  0  0  0  0  0  0  0  0
    2.9284   -0.0383   -1.1788 H   0  0  0  0  0  0  0  0  0  0  0  0
    3.0592    0.5657    1.8008 H   0  0  0  0  0  0  0  0  0  0  0  0
    0.3624    0.5430    2.5365 H   0  0  0  0  0  0  0  0  0  0  0  0
    1.6711   -0.4186    4.0756 H   0  0  0  0  0  0  0  0  0  0  0  0
    2.3095   -1.6709    2.8973 H   0  0  0  0  0  0  0  0  0  0  0  0
    0.9528   -3.0766    4.2083 H   0  0  0  0  0  0  0  0  0  0  0  0
   -0.2093   -1.7055    4.5727 H   0  0  0  0  0  0  0  0  0  0  0  0
   -1.4158   -2.9044    2.9564 H   0  0  0  0  0  0  0  0  0  0  0  0
    0.0553   -3.2364    1.9548 H   0  0  0  0  0  0  0  0  0  0  0  0
   -3.3230   -1.8508    2.3290 H   0  0  0  0  0  0  0  0  0  0  0  0
   -2.5115   -2.2099   -0.5916 H   0  0  0  0  0  0  0  0  0  0  0  0
   -2.1518   -3.2630    0.7781 H   0  0  0  0  0  0  0  0  0  0  0  0
   -4.6619   -2.4433   -1.7411 H   0  0  0  0  0  0  0  0  0  0  0  0
   -6.7076   -3.7586   -1.9732 H   0  0  0  0  0  0  0  0  0  0  0  0
   -7.3760   -5.4236   -0.3016 H   0  0  0  0  0  0  0  0  0  0  0  0
   -5.9463   -5.7658    1.6884 H   0  0  0  0  0  0  0  0  0  0  0  0
   -3.8566   -4.4279    1.9763 H   0  0  0  0  0  0  0  0  0  0  0  0
   -4.9595   -0.4017    1.5961 H   0  0  0  0  0  0  0  0  0  0  0  0
   -5.9706    0.5311   -1.3681 H   0  0  0  0  0  0  0  0  0  0  0  0
   -7.2973    1.2725    0.3472 H   0  0  0  0  0  0  0  0  0  0  0  0
   -5.9786    1.6761    1.3201 H   0  0  0  0  0  0  0  0  0  0  0  0
   -4.2457    2.8714   -0.2703 H   0  0  0  0  0  0  0  0  0  0  0  0
   -4.4219    2.2730   -1.9318 H   0  0  0  0  0  0  0  0  0  0  0  0
   -6.1385    4.1117    0.7919 H   0  0  0  0  0  0  0  0  0  0  0  0
   -8.0185    5.6089    0.3082 H   0  0  0  0  0  0  0  0  0  0  0  0
   -9.7434    5.9581   -2.8613 H   0  0  0  0  0  0  0  0  0  0  0  0
   -8.1468    4.2001   -3.7432 H   0  0  0  0  0  0  0  0  0  0  0  0
   -6.3079    2.7214   -3.3121 H   0  0  0  0  0  0  0  0  0  0  0  0
    5.3961    0.2389   -2.1031 H   0  0  0  0  0  0  0  0  0  0  0  0
    6.9981   -1.3157   -2.5802 H   0  0  0  0  0  0  0  0  0  0  0  0
    7.9676   -0.4920    0.2467 H   0  0  0  0  0  0  0  0  0  0  0  0
    8.9345   -1.2045   -1.0437 H   0  0  0  0  0  0  0  0  0  0  0  0
    9.6442    0.2336   -2.9782 H   0  0  0  0  0  0  0  0  0  0  0  0
   10.2147    2.5344   -3.6662 H   0  0  0  0  0  0  0  0  0  0  0  0
    9.3304    4.4778   -2.4061 H   0  0  0  0  0  0  0  0  0  0  0  0
    7.9063    4.0945   -0.4971 H   0  0  0  0  0  0  0  0  0  0  0  0
    7.3280    1.8171    0.2039 H   0  0  0  0  0  0  0  0  0  0  0  0
    8.6817   -3.4673   -1.2928 H   0  0  0  0  0  0  0  0  0  0  0  0
    8.2077   -3.2332    0.4797 H   0  0  0  0  0  0  0  0  0  0  0  0
  1  2  1  0
  2  3  1  0
  3  4  1  0
  4  5  2  0
  4  6  1  0
  6  7  1  0
  7  8  1  0
  8  9  1  0
  9 10  1  0
 10 11  1  0
 11 12  2  0
 11 13  1  0
 13 14  1  0
 14 15  1  0
 15 16  2  0
 16 17  1  0
 17 18  2  0
 18 19  1  0
 19 20  2  0
 13 21  1  0
 21 22  1  0
 22 23  2  0
 22 24  1  0
 24 25  1  0
 24 26  1  0
 26 27  1  0
 27 28  2  0
 28 29  1  0
 29 30  2  0
 30 31  1  0
 30 32  1  0
 32 33  2  0
  2 34  1  0
 34 35  2  0
 34 36  1  0
 36 37  1  0
 37 38  1  0
 38 39  1  0
 39 40  2  0
 40 41  1  0
 41 42  2  0
 42 43  1  0
 43 44  2  0
 37 45  1  0
 45 46  1  0
 45 47  2  0
 10  6  1  0
 20 15  1  0
 33 27  1  0
 44 39  1  0
  1 48  1  0
  1 49  1  0
  1 50  1  0
  2 51  1  6
  3 52  1  0
  6 53  1  1
  7 54  1  0
  7 55  1  0
  8 56  1  0
  8 57  1  0
  9 58  1  0
  9 59  1  0
 13 60  1  1
 14 61  1  0
 14 62  1  0
 16 63  1  0
 17 64  1  0
 18 65  1  0
 19 66  1  0
 20 67  1  0
 21 68  1  0
 24 69  1  6
 25 70  1  0
 25 71  1  0
 26 72  1  0
 26 73  1  0
 28 74  1  0
 29 75  1  0
 31 76  1  0
 32 77  1  0
 33 78  1  0
 36 79  1  0
 37 80  1  6
 38 81  1  0
 38 82  1  0
 40 83  1  0
 41 84  1  0
 42 85  1  0
 43 86  1  0
 44 87  1  0
 46 88  1  0
 46 89  1  0
M  END
$$$$
[H]OC([H])([H])[C@@]1([H])O[C@]([H])(n2c([H])nc3c(N([H])C([H])([H])c4c([H])c([H])c([H])c(Cl)c4[H])nc([H])nc32)[C@]([H])(O[H])[C@]1([H])O[H]
     RDKit          3D

 45 48  0  0  0  0  0  0  0  0999 V2000
   -6.2942    0.7084    2.2969 O   0  0  0  0  0  0  0  0  0  0  0  0
   -4.9062    0.6497    2.3716 C   0  0  0  0  0  0  0  0  0  0  0  0
   -4.3630    0.3092    1.0062 C   0  0  1  0  0  0  0  0  0  0  0  0
   -2.9956    0.2254    0.9651 O   0  0  0  0  0  0  0  0  0  0  0  0
   -2.6332   -0.8415    0.1757 C   0  0  1  0  0  0  0  0  0  0  0  0
   -3.8462   -1.3065   -0.5669 C   0  0  2  0  0  0  0  0  0  0  0  0
   -4.1685   -0.4737   -1.6424 O   0  0  0  0  0  0  0  0  0  0  0  0
   -4.9151   -1.0064    0.4979 C   0  0  2  0  0  0  0  0  0  0  0  0
   -6.1694   -0.8962   -0.0485 O   0  0  0  0  0  0  0  0  0  0  0  0
   -1.5024   -0.5712   -0.6754 N   0  0  0  0  0  0  0  0  0  0  0  0
   -1.2986   -0.7995   -1.9720 C   0  0  0  0  0  0  0  0  0  0  0  0
   -0.0713   -0.3637   -2.3083 N   0  0  0  0  0  0  0  0  0  0  0  0
    0.5158    0.1481   -1.2170 C   0  0  0  0  0  0  0  0  0  0  0  0
    1.7474    0.7303   -0.9559 C   0  0  0  0  0  0  0  0  0  0  0  0
    2.6569    0.8638   -2.0290 N   0  0  0  0  0  0  0  0  0  0  0  0
    3.9467    1.4498   -1.8053 C   0  0  0  0  0  0  0  0  0  0  0  0
    4.7831    0.6347   -0.8941 C   0  0  0  0  0  0  0  0  0  0  0  0
    5.8905    1.2460   -0.3255 C   0  0  0  0  0  0  0  0  0  0  0  0
    6.6957    0.5154    0.5190 C   0  0  0  0  0  0  0  0  0  0  0  0
    6.3880   -0.8063    0.7835 C   0  0  0  0  0  0  0  0  0  0  0  0
    5.2894   -1.4082    0.2177 C   0  0  0  0  0  0  0  0  0  0  0  0
    4.9489   -3.0852    0.5891 Cl  0  0  0  0  0  0  0  0  0  0  0  0
    4.4908   -0.6753   -0.6229 C   0  0  0  0  0  0  0  0  0  0  0  0
    2.0517    1.1632    0.3016 N   0  0  0  0  0  0  0  0  0  0  0  0
    1.1648    1.0313    1.2996 C   0  0  0  0  0  0  0  0  0  0  0  0
   -0.0251    0.4663    1.0371 N   0  0  0  0  0  0  0  0  0  0  0  0
   -0.3744    0.0185   -0.2037 C   0  0  0  0  0  0  0  0  0  0  0  0
   -6.6271    1.0285    1.4222 H   0  0  0  0  0  0  0  0  0  0  0  0
   -4.5067    1.5741    2.7788 H   0  0  0  0  0  0  0  0  0  0  0  0
   -4.6625   -0.1869    3.0834 H   0  0  0  0  0  0  0  0  0  0  0  0
   -4.6738    1.1199    0.3031 H   0  0  0  0  0  0  0  0  0  0  0  0
   -2.3269   -1.6692    0.8612 H   0  0  0  0  0  0  0  0  0  0  0  0
   -3.8326   -2.3703   -0.8281 H   0  0  0  0  0  0  0  0  0  0  0  0
   -3.6872    0.3889   -1.5700 H   0  0  0  0  0  0  0  0  0  0  0  0
   -4.8339   -1.7783    1.2935 H   0  0  0  0  0  0  0  0  0  0  0  0
   -6.3807   -1.5398   -0.7421 H   0  0  0  0  0  0  0  0  0  0  0  0
   -2.0334   -1.2664   -2.6207 H   0  0  0  0  0  0  0  0  0  0  0  0
    2.3946    0.5396   -2.9772 H   0  0  0  0  0  0  0  0  0  0  0  0
    3.8763    2.4684   -1.3393 H   0  0  0  0  0  0  0  0  0  0  0  0
    4.4990    1.6335   -2.7686 H   0  0  0  0  0  0  0  0  0  0  0  0
    6.1125    2.2721   -0.5430 H   0  0  0  0  0  0  0  0  0  0  0  0
    7.5557    0.9918    0.9599 H   0  0  0  0  0  0  0  0  0  0  0  0
    7.0588   -1.3370    1.4583 H   0  0  0  0  0  0  0  0  0  0  0  0
    3.6281   -1.1804   -1.0552 H   0  0  0  0  0  0  0  0  0  0  0  0
    1.4334    1.3850    2.2921 H   0  0  0  0  0  0  0  0  0  0  0  0
  1  2  1  0
  2  3  1  0
  3  4  1  0
  4  5  1  0
  5  6  1  0
  6  7  1  0
  6  8  1  0
  8  9  1  0
  5 10  1  0
 10 11  1  0
 11 12  2  0
 12 13  1  0
 13 14  2  0
 14 15  1  0
 15 16  1  0
 16 17  1  0
 17 18  2  0
 18 19  1  0
 19 20  2  0
 20 21  1  0
 21 22  1  0
 21 23  2  0
 14 24  1  0
 24 25  2  0
 25 26  1  0
 26 27  2  0
  8  3  1  0
 27 10  1  0
 27 13  1  0
 23 17  1  0
  1 28  1  0
  2 29  1  0
  2 30  1  0
  3 31  1  6
  5 32  1  1
  6 33  1  6
  7 34  1  0
  8 35  1  1
  9 36  1  0
 11 37  1  0
 15 38  1  0
 16 39  1  0
 16 40  1  0
 18 41  1  0
 19 42  1  0
 20 43  1  0
 23 44  1  0
 25 45  1  0
M  END
$$$$
[H]c1c([H])c(S(=O)(=O)N2C([H])([H])C([H])([H])C([H])(N3C([H])([H])C([H])([H])C([H])(C#N)C([H])([H])C3([H])[H])C([H])([H])C2([H])[H])c([H])c([H])c1C(F)(F)F
     RDKit          3D

 49 51  0  0  0  0  0  0  0  0999 V2000
    7.3251    2.6637   -0.9332 F   0  0  0  0  0  0  0  0  0  0  0  0
    7.3654    1.2899   -1.0024 C   0  0  0  0  0  0  0  0  0  0  0  0
    8.4782    0.8451   -0.3259 F   0  0  0  0  0  0  0  0  0  0  0  0
    7.4204    0.9363   -2.3395 F   0  0  0  0  0  0  0  0  0  0  0  0
    6.1170    0.7100   -0.4319 C   0  0  0  0  0  0  0  0  0  0  0  0
    5.7441    0.9820    0.8910 C   0  0  0  0  0  0  0  0  0  0  0  0
    4.6046    0.4593    1.4508 C   0  0  0  0  0  0  0  0  0  0  0  0
    3.7522   -0.3785    0.7266 C   0  0  0  0  0  0  0  0  0  0  0  0
    4.1275   -0.6393   -0.5773 C   0  0  0  0  0  0  0  0  0  0  0  0
    5.2801   -0.1137   -1.1535 C   0  0  0  0  0  0  0  0  0  0  0  0
    2.3073   -1.0296    1.4404 S   0  0  0  0  0  0  0  0  0  0  0  0
    2.1946   -0.4448    2.8497 O   0  0  0  0  0  0  0  0  0  0  0  0
    2.4590   -2.5253    1.6538 O   0  0  0  0  0  0  0  0  0  0  0  0
    0.9465   -0.6120    0.5858 N   0  0  0  0  0  0  0  0  0  0  0  0
    0.2917   -1.6846   -0.1078 C   0  0  0  0  0  0  0  0  0  0  0  0
   -1.1700   -1.4377   -0.3344 C   0  0  0  0  0  0  0  0  0  0  0  0
   -1.6509   -0.1516    0.2788 C   0  0  0  0  0  0  0  0  0  0  0  0
   -0.7699    1.0154   -0.0337 C   0  0  0  0  0  0  0  0  0  0  0  0
    0.7076    0.6645    0.0811 C   0  0  0  0  0  0  0  0  0  0  0  0
   -3.0392    0.0337    0.1589 N   0  0  0  0  0  0  0  0  0  0  0  0
   -3.6043    0.1199   -1.1481 C   0  0  0  0  0  0  0  0  0  0  0  0
   -5.0816    0.4441   -1.0285 C   0  0  0  0  0  0  0  0  0  0  0  0
   -5.4814    0.8726    0.3653 C   0  0  0  0  0  0  0  0  0  0  0  0
   -5.1869   -0.2677    1.2836 C   0  0  0  0  0  0  0  0  0  0  0  0
   -3.8389   -0.8678    0.9494 C   0  0  0  0  0  0  0  0  0  0  0  0
   -6.9071    1.1729    0.3096 C   0  0  0  0  0  0  0  0  0  0  0  0
   -8.0482    1.4325    0.2542 N   0  0  0  0  0  0  0  0  0  0  0  0
    6.4060    1.6319    1.4549 H   0  0  0  0  0  0  0  0  0  0  0  0
    4.3245    0.6812    2.4766 H   0  0  0  0  0  0  0  0  0  0  0  0
    3.4864   -1.2773   -1.1845 H   0  0  0  0  0  0  0  0  0  0  0  0
    5.5380   -0.3441   -2.1881 H   0  0  0  0  0  0  0  0  0  0  0  0
    0.5127   -2.6255    0.4528 H   0  0  0  0  0  0  0  0  0  0  0  0
    0.7655   -1.8050   -1.1045 H   0  0  0  0  0  0  0  0  0  0  0  0
   -1.7073   -2.2948    0.0845 H   0  0  0  0  0  0  0  0  0  0  0  0
   -1.4555   -1.3815   -1.4076 H   0  0  0  0  0  0  0  0  0  0  0  0
   -1.4517   -0.3303    1.3949 H   0  0  0  0  0  0  0  0  0  0  0  0
   -0.9304    1.8500    0.6805 H   0  0  0  0  0  0  0  0  0  0  0  0
   -0.9016    1.4531   -1.0430 H   0  0  0  0  0  0  0  0  0  0  0  0
    1.1790    0.6981   -0.9595 H   0  0  0  0  0  0  0  0  0  0  0  0
    1.2744    1.4298    0.6516 H   0  0  0  0  0  0  0  0  0  0  0  0
   -3.5863   -0.8730   -1.6834 H   0  0  0  0  0  0  0  0  0  0  0  0
   -3.1580    0.9122   -1.7599 H   0  0  0  0  0  0  0  0  0  0  0  0
   -5.3755    1.2976   -1.7115 H   0  0  0  0  0  0  0  0  0  0  0  0
   -5.7390   -0.3898   -1.3439 H   0  0  0  0  0  0  0  0  0  0  0  0
   -4.8825    1.7590    0.6365 H   0  0  0  0  0  0  0  0  0  0  0  0
   -5.2103    0.0955    2.3350 H   0  0  0  0  0  0  0  0  0  0  0  0
   -6.0052   -1.0355    1.1852 H   0  0  0  0  0  0  0  0  0  0  0  0
   -3.3771   -1.1216    1.9217 H   0  0  0  0  0  0  0  0  0  0  0  0
   -4.0486   -1.8191    0.4152 H   0  0  0  0  0  0  0  0  0  0  0  0
  1  2  1  0
  2  3  1  0
  2  4  1  0
  2  5  1  0
  5  6  2  0
  6  7  1  0
  7  8  2  0
  8  9  1  0
  9 10  2  0
  8 11  1  0
 11 12  2  0
 11 13  2  0
 11 14  1  0
 14 15  1  0
 15 16  1  0
 16 17  1  0
 17 18  1  0
 18 19  1  0
 17 20  1  0
 20 21  1  0
 21 22  1  0
 22 23  1  0
 23 24  1  0
 24 25  1  0
 23 26  1  0
 26 27  3  0
 10  5  1  0
 19 14  1  0
 25 20  1  0
  6 28  1  0
  7 29  1  0
  9 30  1  0
 10 31  1  0
 15 32  1  0
 15 33  1  0
 16 34  1  0
 16 35  1  0
 17 36  1  0
 18 37  1  0
 18 38  1  0
 19 39  1  0
 19 40  1  0
 21 41  1  0
 21 42  1  0
 22 43  1  0
 22 44  1  0
 23 45  1  0
 24 46  1  0
 24 47  1  0
 25 48  1  0
 25 49  1  0
M  END
$$$$
[H]N=C(N([H])[H])N([H])C([H])([H])C([H])([H])C([H])([H])[C@@]([H])(C(=O)c1nc2c([H])c([H])c([H])c([H])c2s1)N([H])C(=O)[C@@]1([H])N(C(=O)[C@@]([H])(N([H])[H])C([H])([H])c2c([H])c([H])c(O[H])c([H])c2[H])C([H])([H])C([H])([H])C1([H])[H]
     RDKit          3D

 72 75  0  0  0  0  0  0  0  0999 V2000
    5.8596    1.5157   -0.8820 N   0  0  0  0  0  0  0  0  0  0  0  0
    4.7073    1.0846   -1.5604 C   0  0  1  0  0  0  0  0  0  0  0  0
    5.0484   -0.2025   -2.3050 C   0  0  0  0  0  0  0  0  0  0  0  0
    5.4909   -1.2921   -1.4414 C   0  0  0  0  0  0  0  0  0  0  0  0
    4.5736   -2.1647   -0.9022 C   0  0  0  0  0  0  0  0  0  0  0  0
    4.9603   -3.2193   -0.0759 C   0  0  0  0  0  0  0  0  0  0  0  0
    6.2761   -3.4032    0.2139 C   0  0  0  0  0  0  0  0  0  0  0  0
    6.6466   -4.4725    1.0497 O   0  0  0  0  0  0  0  0  0  0  0  0
    7.2145   -2.5523   -0.3067 C   0  0  0  0  0  0  0  0  0  0  0  0
    6.8161   -1.5042   -1.1297 C   0  0  0  0  0  0  0  0  0  0  0  0
    3.4314    1.0011   -0.8717 C   0  0  0  0  0  0  0  0  0  0  0  0
    2.4452    0.7365   -1.6885 O   0  0  0  0  0  0  0  0  0  0  0  0
    3.0589    1.1440    0.4572 N   0  0  0  0  0  0  0  0  0  0  0  0
    4.0196    1.4565    1.5576 C   0  0  0  0  0  0  0  0  0  0  0  0
    3.3278    2.6806    2.1377 C   0  0  0  0  0  0  0  0  0  0  0  0
    1.8421    2.5490    1.7520 C   0  0  0  0  0  0  0  0  0  0  0  0
    1.8503    1.1020    1.2163 C   0  0  1  0  0  0  0  0  0  0  0  0
    0.6030    0.6413    0.6976 C   0  0  0  0  0  0  0  0  0  0  0  0
    0.4162   -0.1034   -0.3013 O   0  0  0  0  0  0  0  0  0  0  0  0
   -0.5881    1.0570    1.3662 N   0  0  0  0  0  0  0  0  0  0  0  0
   -1.9448    0.6139    0.8757 C   0  0  1  0  0  0  0  0  0  0  0  0
   -2.4837   -0.1248    2.0475 C   0  0  0  0  0  0  0  0  0  0  0  0
   -3.7585   -0.8382    2.0198 C   0  0  0  0  0  0  0  0  0  0  0  0
   -3.9099   -2.0482    1.1921 C   0  0  0  0  0  0  0  0  0  0  0  0
   -3.7201   -2.0689   -0.1833 N   0  0  0  0  0  0  0  0  0  0  0  0
   -3.8943   -3.3205   -0.8796 C   0  0  0  0  0  0  0  0  0  0  0  0
   -2.8141   -4.2310   -0.8693 N   0  0  0  0  0  0  0  0  0  0  0  0
   -4.9729   -3.6294   -1.4952 N   0  0  0  0  0  0  0  0  0  0  0  0
   -2.6423    1.8458    0.4863 C   0  0  0  0  0  0  0  0  0  0  0  0
   -2.0223    2.9652    0.7705 O   0  0  0  0  0  0  0  0  0  0  0  0
   -3.9131    2.0752   -0.1713 C   0  0  0  0  0  0  0  0  0  0  0  0
   -4.8419    1.3063   -0.6471 N   0  0  0  0  0  0  0  0  0  0  0  0
   -5.9249    1.7519   -1.2076 C   0  0  0  0  0  0  0  0  0  0  0  0
   -6.9696    0.9668   -1.7428 C   0  0  0  0  0  0  0  0  0  0  0  0
   -8.0432    1.5801   -2.2991 C   0  0  0  0  0  0  0  0  0  0  0  0
   -8.2042    2.9415   -2.3880 C   0  0  0  0  0  0  0  0  0  0  0  0
   -7.1906    3.7124   -1.8689 C   0  0  0  0  0  0  0  0  0  0  0  0
   -6.0633    3.1125   -1.2850 C   0  0  0  0  0  0  0  0  0  0  0  0
   -4.6222    3.6365   -0.5441 S   0  0  0  0  0  0  0  0  0  0  0  0
    5.8945    2.5456   -0.6783 H   0  0  0  0  0  0  0  0  0  0  0  0
    6.7345    1.3312   -1.4359 H   0  0  0  0  0  0  0  0  0  0  0  0
    4.5453    1.8325   -2.4133 H   0  0  0  0  0  0  0  0  0  0  0  0
    4.2079   -0.4479   -2.9764 H   0  0  0  0  0  0  0  0  0  0  0  0
    5.9027    0.0700   -2.9902 H   0  0  0  0  0  0  0  0  0  0  0  0
    3.5133   -2.0762   -1.0919 H   0  0  0  0  0  0  0  0  0  0  0  0
    4.2333   -3.9122    0.3528 H   0  0  0  0  0  0  0  0  0  0  0  0
    6.8498   -5.3591    0.5662 H   0  0  0  0  0  0  0  0  0  0  0  0
    8.2659   -2.7095   -0.0670 H   0  0  0  0  0  0  0  0  0  0  0  0
    7.6081   -0.8786   -1.5037 H   0  0  0  0  0  0  0  0  0  0  0  0
    5.0292    1.5501    1.3025 H   0  0  0  0  0  0  0  0  0  0  0  0
    3.8502    0.5796    2.2599 H   0  0  0  0  0  0  0  0  0  0  0  0
    3.4292    2.6124    3.2421 H   0  0  0  0  0  0  0  0  0  0  0  0
    3.7610    3.6258    1.8133 H   0  0  0  0  0  0  0  0  0  0  0  0
    1.2131    2.6553    2.6365 H   0  0  0  0  0  0  0  0  0  0  0  0
    1.5846    3.1864    0.8982 H   0  0  0  0  0  0  0  0  0  0  0  0
    2.1335    0.4900    2.1627 H   0  0  0  0  0  0  0  0  0  0  0  0
   -0.5764    1.6470    2.1708 H   0  0  0  0  0  0  0  0  0  0  0  0
   -1.7430   -0.0293    0.0409 H   0  0  0  0  0  0  0  0  0  0  0  0
   -1.6452   -0.8729    2.3125 H   0  0  0  0  0  0  0  0  0  0  0  0
   -2.4166    0.5394    2.9937 H   0  0  0  0  0  0  0  0  0  0  0  0
   -4.0082   -1.2122    3.0972 H   0  0  0  0  0  0  0  0  0  0  0  0
   -4.6511   -0.1643    1.8575 H   0  0  0  0  0  0  0  0  0  0  0  0
   -4.9519   -2.5089    1.3791 H   0  0  0  0  0  0  0  0  0  0  0  0
   -3.2608   -2.9047    1.6182 H   0  0  0  0  0  0  0  0  0  0  0  0
   -3.4656   -1.2795   -0.7732 H   0  0  0  0  0  0  0  0  0  0  0  0
   -2.4468   -4.5705   -1.7786 H   0  0  0  0  0  0  0  0  0  0  0  0
   -2.4379   -4.5172    0.0692 H   0  0  0  0  0  0  0  0  0  0  0  0
   -5.1377   -4.5071   -2.0015 H   0  0  0  0  0  0  0  0  0  0  0  0
   -6.9417   -0.1136   -1.7237 H   0  0  0  0  0  0  0  0  0  0  0  0
   -8.8491    0.9655   -2.7113 H   0  0  0  0  0  0  0  0  0  0  0  0
   -9.0747    3.3499   -2.8389 H   0  0  0  0  0  0  0  0  0  0  0  0
   -7.2132    4.7822   -1.8853 H   0  0  0  0  0  0  0  0  0  0  0  0
  1  2  1  0
  2  3  1  0
  3  4  1  0
  4  5  2  0
  5  6  1  0
  6  7  2  0
  7  8  1  0
  7  9  1  0
  9 10  2  0
  2 11  1  0
 11 12  2  0
 11 13  1  0
 13 14  1  0
 14 15  1  0
 15 16  1  0
 16 17  1  0
 17 18  1  0
 18 19  2  0
 18 20  1  0
 20 21  1  0
 21 22  1  0
 22 23  1  0
 23 24  1  0
 24 25  1  0
 25 26  1  0
 26 27  1  0
 26 28  2  3
 21 29  1  0
 29 30  2  0
 29 31  1  0
 31 32  2  0
 32 33  1  0
 33 34  2  0
 34 35  1  0
 35 36  2  0
 36 37  1  0
 37 38  2  0
 38 39  1  0
 10  4  1  0
 17 13  1  0
 39 31  1  0
 38 33  1  0
  1 40  1  0
  1 41  1  0
  2 42  1  6
  3 43  1  0
  3 44  1  0
  5 45  1  0
  6 46  1  0
  8 47  1  0
  9 48  1  0
 10 49  1  0
 14 50  1  0
 14 51  1  0
 15 52  1  0
 15 53  1  0
 16 54  1  0
 16 55  1  0
 17 56  1  1
 20 57  1  0
 21 58  1  6
 22 59  1  0
 22 60  1  0
 23 61  1  0
 23 62  1  0
 24 63  1  0
 24 64  1  0
 25 65  1  0
 27 66  1  0
 27 67  1  0
 28 68  1  0
 34 69  1  0
 35 70  1  0
 36 71  1  0
 37 72  1  0
M  END
$$$$
[H]N=C(N([H])[H])N1C([H])([H])C([H])([H])C([H])(OC(=O)N([H])C([H])([H])C([H])([H])C(=O)N([H])c2nc([H])c(C3([H])C([H])([H])C([H])(c4c([H])c([H])c(Cl)c([H])c4F)C3([H])[H])c([H])c2[H])C([H])([H])C1([H])[H]
     RDKit          3D

 66 69  0  0  0  0  0  0  0  0999 V2000
   -8.7837   -2.1163    0.0512 N   0  0  0  0  0  0  0  0  0  0  0  0
   -8.0928   -0.8523    0.0709 C   0  0  0  0  0  0  0  0  0  0  0  0
   -7.6722   -0.4594    1.2354 N   0  0  0  0  0  0  0  0  0  0  0  0
   -7.9008   -0.1200   -1.1096 N   0  0  0  0  0  0  0  0  0  0  0  0
   -8.1137   -0.7430   -2.3944 C   0  0  0  0  0  0  0  0  0  0  0  0
   -6.7689   -0.7305   -3.1411 C   0  0  0  0  0  0  0  0  0  0  0  0
   -5.9346    0.4713   -2.7532 C   0  0  0  0  0  0  0  0  0  0  0  0
   -7.0360    1.6008   -2.4858 C   0  0  0  0  0  0  0  0  0  0  0  0
   -7.4771    1.2666   -1.0692 C   0  0  0  0  0  0  0  0  0  0  0  0
   -5.2771    0.2518   -1.5884 O   0  0  0  0  0  0  0  0  0  0  0  0
   -4.0330    0.6125   -1.0962 C   0  0  0  0  0  0  0  0  0  0  0  0
   -3.3328    1.3192   -1.8718 O   0  0  0  0  0  0  0  0  0  0  0  0
   -3.7005    0.1588    0.2082 N   0  0  0  0  0  0  0  0  0  0  0  0
   -3.3973   -0.2549    1.3979 C   0  0  0  0  0  0  0  0  0  0  0  0
   -2.2758   -1.1580    1.7356 C   0  0  0  0  0  0  0  0  0  0  0  0
   -0.9390   -0.7182    1.4334 C   0  0  0  0  0  0  0  0  0  0  0  0
   -0.6389    0.1027    0.5447 O   0  0  0  0  0  0  0  0  0  0  0  0
    0.1331   -1.2669    2.2416 N   0  0  0  0  0  0  0  0  0  0  0  0
    1.4881   -0.8526    1.9953 C   0  0  0  0  0  0  0  0  0  0  0  0
    2.5127   -1.2665    2.8474 C   0  0  0  0  0  0  0  0  0  0  0  0
    3.8046   -0.8871    2.5877 C   0  0  0  0  0  0  0  0  0  0  0  0
    4.1414   -0.0917    1.4830 C   0  0  0  0  0  0  0  0  0  0  0  0
    3.1040    0.2904    0.6732 C   0  0  0  0  0  0  0  0  0  0  0  0
    1.8206   -0.0980    0.9532 N   0  0  0  0  0  0  0  0  0  0  0  0
    5.5581    0.2911    1.2819 C   0  0  0  0  0  0  0  0  0  0  0  0
    5.8824    1.4044    0.3571 C   0  0  0  0  0  0  0  0  0  0  0  0
    6.8445    0.5517   -0.4213 C   0  0  0  0  0  0  0  0  0  0  0  0
    6.3241   -0.6458    0.3323 C   0  0  0  0  0  0  0  0  0  0  0  0
    8.2794    0.8516   -0.3184 C   0  0  0  0  0  0  0  0  0  0  0  0
    8.7115    2.0677    0.1155 C   0  0  0  0  0  0  0  0  0  0  0  0
   10.0652    2.3375    0.1712 C   0  0  0  0  0  0  0  0  0  0  0  0
   10.9708    1.3608   -0.2184 C   0  0  0  0  0  0  0  0  0  0  0  0
   12.6743    1.7335   -0.1402 Cl  0  0  0  0  0  0  0  0  0  0  0  0
   10.5330    0.1084   -0.6626 C   0  0  0  0  0  0  0  0  0  0  0  0
    9.1763   -0.1409   -0.7096 C   0  0  0  0  0  0  0  0  0  0  0  0
    8.6677   -1.3179   -1.1203 F   0  0  0  0  0  0  0  0  0  0  0  0
   -9.6874   -2.2030   -0.4326 H   0  0  0  0  0  0  0  0  0  0  0  0
   -8.3476   -2.9299    0.5299 H   0  0  0  0  0  0  0  0  0  0  0  0
   -7.8134   -1.0001    2.0986 H   0  0  0  0  0  0  0  0  0  0  0  0
   -8.4165   -1.7926   -2.3134 H   0  0  0  0  0  0  0  0  0  0  0  0
   -8.8739   -0.2279   -3.0260 H   0  0  0  0  0  0  0  0  0  0  0  0
   -6.2520   -1.6844   -2.8281 H   0  0  0  0  0  0  0  0  0  0  0  0
   -6.9431   -0.8340   -4.2264 H   0  0  0  0  0  0  0  0  0  0  0  0
   -5.2931    0.8998   -3.5368 H   0  0  0  0  0  0  0  0  0  0  0  0
   -6.5709    2.5725   -2.5091 H   0  0  0  0  0  0  0  0  0  0  0  0
   -7.7873    1.4384   -3.2466 H   0  0  0  0  0  0  0  0  0  0  0  0
   -8.2421    1.9450   -0.6967 H   0  0  0  0  0  0  0  0  0  0  0  0
   -6.5294    1.2843   -0.4510 H   0  0  0  0  0  0  0  0  0  0  0  0
   -2.5485    0.8962    0.1311 H   0  0  0  0  0  0  0  0  0  0  0  0
   -4.3198   -0.8689    1.9030 H   0  0  0  0  0  0  0  0  0  0  0  0
   -3.3602    0.6191    2.1932 H   0  0  0  0  0  0  0  0  0  0  0  0
   -2.4617   -2.2158    1.3662 H   0  0  0  0  0  0  0  0  0  0  0  0
   -2.3286   -1.3345    2.8829 H   0  0  0  0  0  0  0  0  0  0  0  0
   -0.1230   -1.9444    2.9724 H   0  0  0  0  0  0  0  0  0  0  0  0
    2.2327   -1.8751    3.6822 H   0  0  0  0  0  0  0  0  0  0  0  0
    4.6236   -1.1947    3.2621 H   0  0  0  0  0  0  0  0  0  0  0  0
    3.3161    0.9040   -0.1848 H   0  0  0  0  0  0  0  0  0  0  0  0
    6.1145    0.3154    2.2524 H   0  0  0  0  0  0  0  0  0  0  0  0
    6.3447    2.2631    0.8816 H   0  0  0  0  0  0  0  0  0  0  0  0
    5.0251    1.7798   -0.2634 H   0  0  0  0  0  0  0  0  0  0  0  0
    6.5935    0.5182   -1.5294 H   0  0  0  0  0  0  0  0  0  0  0  0
    5.5931   -1.1769   -0.3133 H   0  0  0  0  0  0  0  0  0  0  0  0
    7.0557   -1.2909    0.8150 H   0  0  0  0  0  0  0  0  0  0  0  0
    8.0577    2.8819    0.4258 H   0  0  0  0  0  0  0  0  0  0  0  0
   10.3985    3.2969    0.5070 H   0  0  0  0  0  0  0  0  0  0  0  0
   11.2256   -0.6557   -0.9618 H   0  0  0  0  0  0  0  0  0  0  0  0
  1  2  1  0
  2  3  2  3
  2  4  1  0
  4  5  1  0
  5  6  1  0
  6  7  1  0
  7  8  1  0
  8  9  1  0
  7 10  1  0
 10 11  1  0
 11 12  2  0
 11 13  1  0
 13 14  1  0
 14 15  1  0
 15 16  1  0
 16 17  2  0
 16 18  1  0
 18 19  1  0
 19 20  2  0
 20 21  1  0
 21 22  2  0
 22 23  1  0
 23 24  2  0
 22 25  1  0
 25 26  1  0
 26 27  1  0
 27 28  1  0
 27 29  1  0
 29 30  2  0
 30 31  1  0
 31 32  2  0
 32 33  1  0
 32 34  1  0
 34 35  2  0
 35 36  1  0
  9  4  1  0
 24 19  1  0
 28 25  1  0
 35 29  1  0
  1 37  1  0
  1 38  1  0
  3 39  1  0
  5 40  1  0
  5 41  1  0
  6 42  1  0
  6 43  1  0
  7 44  1  0
  8 45  1  0
  8 46  1  0
  9 47  1  0
  9 48  1  0
 13 49  1  0
 14 50  1  0
 14 51  1  0
 15 52  1  0
 15 53  1  0
 18 54  1  0
 20 55  1  0
 21 56  1  0
 23 57  1  0
 25 58  1  0
 26 59  1  0
 26 60  1  0
 27 61  1  0
 28 62  1  0
 28 63  1  0
 30 64  1  0
 31 65  1  0
 34 66  1  0
M  END
$$$$
[H]O[C@@]([H])(c1c([H])c([H])c([H])c([H])c1[H])[C@@]1([H])N(C(=O)N([H])c2c([H])c([H])c(Cl)c(C(F)(F)F)c2[H])C([H])([H])[C@@]([H])(C([H])([H])[H])C1([H])[H]
     RDKit          3D

 48 50  0  0  0  0  0  0  0  0999 V2000
   -3.0353   -3.7637    0.6054 C   0  0  0  0  0  0  0  0  0  0  0  0
   -1.8087   -2.9613    0.3222 C   0  0  1  0  0  0  0  0  0  0  0  0
   -2.0266   -1.8136   -0.6146 C   0  0  0  0  0  0  0  0  0  0  0  0
   -1.1237   -0.6820   -0.1261 C   0  0  2  0  0  0  0  0  0  0  0  0
   -0.3764   -1.2949    0.9527 N   0  0  0  0  0  0  0  0  0  0  0  0
   -1.2800   -2.2453    1.5653 C   0  0  0  0  0  0  0  0  0  0  0  0
    0.9773   -1.0480    1.3570 C   0  0  0  0  0  0  0  0  0  0  0  0
    1.3622   -1.7217    2.3369 O   0  0  0  0  0  0  0  0  0  0  0  0
    1.7200   -0.1137    0.6494 N   0  0  0  0  0  0  0  0  0  0  0  0
    3.0651    0.2495    0.9264 C   0  0  0  0  0  0  0  0  0  0  0  0
    3.7020   -0.0466    2.0994 C   0  0  0  0  0  0  0  0  0  0  0  0
    5.0422    0.3419    2.2636 C   0  0  0  0  0  0  0  0  0  0  0  0
    5.7257    1.0105    1.2773 C   0  0  0  0  0  0  0  0  0  0  0  0
    7.4092    1.4724    1.5430 Cl  0  0  0  0  0  0  0  0  0  0  0  0
    5.0763    1.3079    0.0930 C   0  0  0  0  0  0  0  0  0  0  0  0
    3.7754    0.9384   -0.0844 C   0  0  0  0  0  0  0  0  0  0  0  0
    5.8307    2.0359   -0.9722 C   0  0  0  0  0  0  0  0  0  0  0  0
    5.0640    2.2586   -2.0783 F   0  0  0  0  0  0  0  0  0  0  0  0
    6.9506    1.2811   -1.2727 F   0  0  0  0  0  0  0  0  0  0  0  0
    6.2658    3.2770   -0.5082 F   0  0  0  0  0  0  0  0  0  0  0  0
   -1.9521    0.4228    0.4888 C   0  0  1  0  0  0  0  0  0  0  0  0
   -1.1317    1.3635    1.1115 O   0  0  0  0  0  0  0  0  0  0  0  0
   -2.7361    1.1669   -0.5234 C   0  0  0  0  0  0  0  0  0  0  0  0
   -2.1431    2.0865   -1.3573 C   0  0  0  0  0  0  0  0  0  0  0  0
   -2.8943    2.7847   -2.3110 C   0  0  0  0  0  0  0  0  0  0  0  0
   -4.2458    2.5502   -2.4187 C   0  0  0  0  0  0  0  0  0  0  0  0
   -4.8532    1.6391   -1.5979 C   0  0  0  0  0  0  0  0  0  0  0  0
   -4.0898    0.9627   -0.6644 C   0  0  0  0  0  0  0  0  0  0  0  0
   -3.3673   -3.5354    1.6472 H   0  0  0  0  0  0  0  0  0  0  0  0
   -3.8398   -3.6272   -0.1342 H   0  0  0  0  0  0  0  0  0  0  0  0
   -2.7310   -4.8444    0.6016 H   0  0  0  0  0  0  0  0  0  0  0  0
   -0.9478   -3.6066   -0.0204 H   0  0  0  0  0  0  0  0  0  0  0  0
   -1.6322   -2.1407   -1.6212 H   0  0  0  0  0  0  0  0  0  0  0  0
   -3.0781   -1.5236   -0.6621 H   0  0  0  0  0  0  0  0  0  0  0  0
   -0.4835   -0.3179   -0.9505 H   0  0  0  0  0  0  0  0  0  0  0  0
   -2.1036   -1.7329    2.0953 H   0  0  0  0  0  0  0  0  0  0  0  0
   -0.7406   -2.9600    2.2267 H   0  0  0  0  0  0  0  0  0  0  0  0
    1.2503    0.3776   -0.1716 H   0  0  0  0  0  0  0  0  0  0  0  0
    3.2066   -0.5623    2.9188 H   0  0  0  0  0  0  0  0  0  0  0  0
    5.4992    0.0820    3.2122 H   0  0  0  0  0  0  0  0  0  0  0  0
    3.2664    1.1779   -1.0279 H   0  0  0  0  0  0  0  0  0  0  0  0
   -2.6368    0.0012    1.2276 H   0  0  0  0  0  0  0  0  0  0  0  0
   -1.0802    1.1538    2.0818 H   0  0  0  0  0  0  0  0  0  0  0  0
   -1.0880    2.2781   -1.2824 H   0  0  0  0  0  0  0  0  0  0  0  0
   -2.4412    3.5100   -2.9725 H   0  0  0  0  0  0  0  0  0  0  0  0
   -4.8352    3.0845   -3.1524 H   0  0  0  0  0  0  0  0  0  0  0  0
   -5.9225    1.4809   -1.7126 H   0  0  0  0  0  0  0  0  0  0  0  0
   -4.5647    0.2465   -0.0184 H   0  0  0  0  0  0  0  0  0  0  0  0
  1  2  1  0
  2  3  1  0
  3  4  1  0
  4  5  1  0
  5  6  1  0
  5  7  1  0
  7  8  2  0
  7  9  1  0
  9 10  1  0
 10 11  2  0
 11 12  1  0
 12 13  2  0
 13 14  1  0
 13 15  1  0
 15 16  2  0
 15 17  1  0
 17 18  1  0
 17 19  1  0
 17 20  1  0
  4 21  1  0
 21 22  1  0
 21 23  1  0
 23 24  2  0
 24 25  1  0
 25 26  2  0
 26 27  1  0
 27 28  2  0
  6  2  1  0
 16 10  1  0
 28 23  1  0
  1 29  1  0
  1 30  1  0
  1 31  1  0
  2 32  1  6
  3 33  1  0
  3 34  1  0
  4 35  1  6
  6 36  1  0
  6 37  1  0
  9 38  1  0
 11 39  1  0
 12 40  1  0
 16 41  1  0
 21 42  1  1
 22 43  1  0
 24 44  1  0
 25 45  1  0
 26 46  1  0
 27 47  1  0
 28 48  1  0
M  END
$$$$
[H]ON([H])C(=O)C([H])([H])[C@]([H])(C(=O)N([H])[C@]([H])(C(=O)N([H])O[H])C([H])([H])c1c([H])c([H])c([H])c([H])c1[H])C([H])([H])C([H])(C([H])([H])[H])C([H])([H])[H]
     RDKit          3D

 50 50  0  0  0  0  0  0  0  0999 V2000
   -1.6886   -2.7845    0.4854 C   0  0  0  0  0  0  0  0  0  0  0  0
   -1.5504   -1.9838   -0.7807 C   0  0  0  0  0  0  0  0  0  0  0  0
   -2.3091   -2.7830   -1.8543 C   0  0  0  0  0  0  0  0  0  0  0  0
   -2.1856   -0.6281   -0.6885 C   0  0  0  0  0  0  0  0  0  0  0  0
   -1.6670    0.2770    0.3579 C   0  0  2  0  0  0  0  0  0  0  0  0
   -2.4397    1.5762    0.3346 C   0  0  0  0  0  0  0  0  0  0  0  0
   -3.8639    1.4474    0.6238 C   0  0  0  0  0  0  0  0  0  0  0  0
   -4.3867    0.3806    1.0345 O   0  0  0  0  0  0  0  0  0  0  0  0
   -4.6934    2.5769    0.4323 N   0  0  0  0  0  0  0  0  0  0  0  0
   -6.0065    2.4854    0.6907 O   0  0  0  0  0  0  0  0  0  0  0  0
   -0.2055    0.6647    0.1320 C   0  0  0  0  0  0  0  0  0  0  0  0
    0.2651    0.3153   -0.9632 O   0  0  0  0  0  0  0  0  0  0  0  0
    0.4821    1.3669    1.1383 N   0  0  0  0  0  0  0  0  0  0  0  0
    1.8077    1.8483    1.1714 C   0  0  1  0  0  0  0  0  0  0  0  0
    2.7964    0.8984    1.7932 C   0  0  0  0  0  0  0  0  0  0  0  0
    2.9177   -0.4055    1.1488 C   0  0  0  0  0  0  0  0  0  0  0  0
    2.1035   -1.4314    1.6006 C   0  0  0  0  0  0  0  0  0  0  0  0
    2.1609   -2.6900    1.0524 C   0  0  0  0  0  0  0  0  0  0  0  0
    3.0366   -2.9528    0.0362 C   0  0  0  0  0  0  0  0  0  0  0  0
    3.8396   -1.9434   -0.4103 C   0  0  0  0  0  0  0  0  0  0  0  0
    3.7998   -0.6516    0.1326 C   0  0  0  0  0  0  0  0  0  0  0  0
    2.2827    2.4884   -0.0630 C   0  0  0  0  0  0  0  0  0  0  0  0
    1.5785    2.6351   -1.0789 O   0  0  0  0  0  0  0  0  0  0  0  0
    3.6218    2.9925   -0.1572 N   0  0  0  0  0  0  0  0  0  0  0  0
    4.1016    3.5826   -1.2576 O   0  0  0  0  0  0  0  0  0  0  0  0
   -1.7243   -2.1612    1.3890 H   0  0  0  0  0  0  0  0  0  0  0  0
   -0.8811   -3.5578    0.5284 H   0  0  0  0  0  0  0  0  0  0  0  0
   -2.6511   -3.3708    0.4793 H   0  0  0  0  0  0  0  0  0  0  0  0
   -0.5155   -1.9060   -1.0967 H   0  0  0  0  0  0  0  0  0  0  0  0
   -2.5333   -2.1623   -2.7203 H   0  0  0  0  0  0  0  0  0  0  0  0
   -1.6545   -3.6281   -2.1643 H   0  0  0  0  0  0  0  0  0  0  0  0
   -3.2438   -3.1838   -1.4204 H   0  0  0  0  0  0  0  0  0  0  0  0
   -3.2586   -0.7417   -0.6316 H   0  0  0  0  0  0  0  0  0  0  0  0
   -1.9436   -0.1216   -1.6821 H   0  0  0  0  0  0  0  0  0  0  0  0
   -1.7229   -0.1135    1.3854 H   0  0  0  0  0  0  0  0  0  0  0  0
   -2.3536    2.0354   -0.6919 H   0  0  0  0  0  0  0  0  0  0  0  0
   -1.9718    2.2772    1.0652 H   0  0  0  0  0  0  0  0  0  0  0  0
   -4.2794    3.4625    0.0950 H   0  0  0  0  0  0  0  0  0  0  0  0
   -6.5277    2.6052   -0.1471 H   0  0  0  0  0  0  0  0  0  0  0  0
   -0.1070    1.5554    2.0198 H   0  0  0  0  0  0  0  0  0  0  0  0
    1.7808    2.7192    1.9633 H   0  0  0  0  0  0  0  0  0  0  0  0
    3.7709    1.4313    1.8782 H   0  0  0  0  0  0  0  0  0  0  0  0
    2.4600    0.7718    2.8645 H   0  0  0  0  0  0  0  0  0  0  0  0
    1.3967   -1.2340    2.4148 H   0  0  0  0  0  0  0  0  0  0  0  0
    1.5201   -3.4815    1.4142 H   0  0  0  0  0  0  0  0  0  0  0  0
    3.1022   -3.9222   -0.4085 H   0  0  0  0  0  0  0  0  0  0  0  0
    4.5460   -2.1085   -1.2118 H   0  0  0  0  0  0  0  0  0  0  0  0
    4.4556    0.1034   -0.2540 H   0  0  0  0  0  0  0  0  0  0  0  0
    4.2482    2.9050    0.6548 H   0  0  0  0  0  0  0  0  0  0  0  0
    4.2901    4.5451   -1.1500 H   0  0  0  0  0  0  0  0  0  0  0  0
  1  2  1  0
  2  3  1  0
  2  4  1  0
  4  5  1  0
  5  6  1  0
  6  7  1  0
  7  8  2  0
  7  9  1  0
  9 10  1  0
  5 11  1  0
 11 12  2  0
 11 13  1  0
 13 14  1  0
 14 15  1  0
 15 16  1  0
 16 17  2  0
 17 18  1  0
 18 19  2  0
 19 20  1  0
 20 21  2  0
 14 22  1  0
 22 23  2  0
 22 24  1  0
 24 25  1  0
 21 16  1  0
  1 26  1  0
  1 27  1  0
  1 28  1  0
  2 29  1  0
  3 30  1  0
  3 31  1  0
  3 32  1  0
  4 33  1  0
  4 34  1  0
  5 35  1  1
  6 36  1  0
  6 37  1  0
  9 38  1  0
 10 39  1  0
 13 40  1  0
 14 41  1  1
 15 42  1  0
 15 43  1  0
 17 44  1  0
 18 45  1  0
 19 46  1  0
 20 47  1  0
 21 48  1  0
 24 49  1  0
 25 50  1  0
M  END
$$$$
[H]c1nc(N([H])c2c([H])c([H])c(N3C([H])([H])C([H])([H])C([H])(N(C([H])([H])[H])C([H])([H])[H])C([H])([H])C3([H])[H])c([H])c2OC([H])([H])[H])nc(N([H])c2c([H])c([H])c([H])c([H])c2S(=O)(=O)C([H])(C([H])([H])[H])C([H])([H])[H])c1Cl
     RDKit          3D

 73 76  0  0  0  0  0  0  0  0999 V2000
   -1.4887   -3.5880    1.2680 C   0  0  0  0  0  0  0  0  0  0  0  0
   -0.7608   -2.5452    0.6863 O   0  0  0  0  0  0  0  0  0  0  0  0
   -1.4161   -1.4468    0.1649 C   0  0  0  0  0  0  0  0  0  0  0  0
   -2.7697   -1.3138    0.1835 C   0  0  0  0  0  0  0  0  0  0  0  0
   -3.4310   -0.2298   -0.3300 C   0  0  0  0  0  0  0  0  0  0  0  0
   -2.6699    0.7643   -0.8887 C   0  0  0  0  0  0  0  0  0  0  0  0
   -1.2837    0.6857   -0.9374 C   0  0  0  0  0  0  0  0  0  0  0  0
   -0.6456   -0.4090   -0.4169 C   0  0  0  0  0  0  0  0  0  0  0  0
    0.7306   -0.5530   -0.4331 N   0  0  0  0  0  0  0  0  0  0  0  0
    1.7028    0.3458   -0.9492 C   0  0  0  0  0  0  0  0  0  0  0  0
    1.4800    1.5214   -1.5269 N   0  0  0  0  0  0  0  0  0  0  0  0
    2.4593    2.3096   -1.9876 C   0  0  0  0  0  0  0  0  0  0  0  0
    3.7698    1.9304   -1.8818 C   0  0  0  0  0  0  0  0  0  0  0  0
    5.0878    2.9156   -2.4745 Cl  0  0  0  0  0  0  0  0  0  0  0  0
    4.0678    0.6884   -1.2753 C   0  0  0  0  0  0  0  0  0  0  0  0
    5.4172    0.3014   -1.1217 N   0  0  0  0  0  0  0  0  0  0  0  0
    5.8705   -0.9049   -0.5954 C   0  0  0  0  0  0  0  0  0  0  0  0
    5.0906   -2.0601   -0.5353 C   0  0  0  0  0  0  0  0  0  0  0  0
    5.6105   -3.2759   -0.1172 C   0  0  0  0  0  0  0  0  0  0  0  0
    6.9209   -3.3878    0.2545 C   0  0  0  0  0  0  0  0  0  0  0  0
    7.6858   -2.2549    0.1966 C   0  0  0  0  0  0  0  0  0  0  0  0
    7.2100   -1.0030   -0.2158 C   0  0  0  0  0  0  0  0  0  0  0  0
    8.2797    0.3289   -0.1092 S   0  0  0  0  0  0  0  0  0  0  0  0
    9.7039   -0.2341    0.1061 O   0  0  0  0  0  0  0  0  0  0  0  0
    8.4312    1.1263   -1.3815 O   0  0  0  0  0  0  0  0  0  0  0  0
    8.0255    1.4139    1.2573 C   0  0  0  0  0  0  0  0  0  0  0  0
    9.1794    2.4149    1.3719 C   0  0  0  0  0  0  0  0  0  0  0  0
    6.7769    2.1937    1.2396 C   0  0  0  0  0  0  0  0  0  0  0  0
    3.0226    0.0056   -0.8635 N   0  0  0  0  0  0  0  0  0  0  0  0
   -4.8624   -0.0923   -0.3072 N   0  0  0  0  0  0  0  0  0  0  0  0
   -5.5849   -1.1673    0.3276 C   0  0  0  0  0  0  0  0  0  0  0  0
   -7.0407   -0.9434    0.5155 C   0  0  0  0  0  0  0  0  0  0  0  0
   -7.4356    0.4949    0.3818 C   0  0  0  0  0  0  0  0  0  0  0  0
   -6.9640    0.9951   -0.9680 C   0  0  0  0  0  0  0  0  0  0  0  0
   -5.4597    1.0612   -0.8960 C   0  0  0  0  0  0  0  0  0  0  0  0
   -8.8564    0.6589    0.5708 N   0  0  0  0  0  0  0  0  0  0  0  0
   -9.2782    2.0230    0.4605 C   0  0  0  0  0  0  0  0  0  0  0  0
   -9.6390   -0.2430   -0.2416 C   0  0  0  0  0  0  0  0  0  0  0  0
   -0.7931   -4.1921    1.9054 H   0  0  0  0  0  0  0  0  0  0  0  0
   -1.9544   -4.2113    0.4616 H   0  0  0  0  0  0  0  0  0  0  0  0
   -2.2604   -3.2007    1.9817 H   0  0  0  0  0  0  0  0  0  0  0  0
   -3.3514   -2.1246    0.6360 H   0  0  0  0  0  0  0  0  0  0  0  0
   -3.1295    1.6488   -1.3125 H   0  0  0  0  0  0  0  0  0  0  0  0
   -0.7832    1.5103   -1.3929 H   0  0  0  0  0  0  0  0  0  0  0  0
    1.1068   -1.4691    0.0044 H   0  0  0  0  0  0  0  0  0  0  0  0
    2.2213    3.2667   -2.4541 H   0  0  0  0  0  0  0  0  0  0  0  0
    6.1140    0.9939   -1.4647 H   0  0  0  0  0  0  0  0  0  0  0  0
    4.0603   -2.0188   -0.8381 H   0  0  0  0  0  0  0  0  0  0  0  0
    4.9515   -4.1295   -0.0940 H   0  0  0  0  0  0  0  0  0  0  0  0
    7.3564   -4.3431    0.5885 H   0  0  0  0  0  0  0  0  0  0  0  0
    8.7315   -2.3610    0.4975 H   0  0  0  0  0  0  0  0  0  0  0  0
    8.1309    0.7711    2.1790 H   0  0  0  0  0  0  0  0  0  0  0  0
    9.2341    2.9999    0.4280 H   0  0  0  0  0  0  0  0  0  0  0  0
    8.8903    3.1190    2.1704 H   0  0  0  0  0  0  0  0  0  0  0  0
   10.1385    1.9091    1.5465 H   0  0  0  0  0  0  0  0  0  0  0  0
    6.6586    2.6546    0.2401 H   0  0  0  0  0  0  0  0  0  0  0  0
    5.9200    1.5461    1.5414 H   0  0  0  0  0  0  0  0  0  0  0  0
    6.8570    3.0425    1.9945 H   0  0  0  0  0  0  0  0  0  0  0  0
   -5.4057   -2.0834   -0.2985 H   0  0  0  0  0  0  0  0  0  0  0  0
   -5.1129   -1.3839    1.3330 H   0  0  0  0  0  0  0  0  0  0  0  0
   -7.3369   -1.2598    1.5530 H   0  0  0  0  0  0  0  0  0  0  0  0
   -7.5857   -1.5404   -0.2484 H   0  0  0  0  0  0  0  0  0  0  0  0
   -6.9204    1.0822    1.1579 H   0  0  0  0  0  0  0  0  0  0  0  0
   -7.3716    2.0047   -1.1693 H   0  0  0  0  0  0  0  0  0  0  0  0
   -7.2424    0.3151   -1.7855 H   0  0  0  0  0  0  0  0  0  0  0  0
   -5.0229    1.2094   -1.9181 H   0  0  0  0  0  0  0  0  0  0  0  0
   -5.2243    1.9555   -0.2465 H   0  0  0  0  0  0  0  0  0  0  0  0
   -9.3583    2.3936   -0.5797 H   0  0  0  0  0  0  0  0  0  0  0  0
   -8.5425    2.6556    1.0032 H   0  0  0  0  0  0  0  0  0  0  0  0
  -10.3018    2.1167    0.9062 H   0  0  0  0  0  0  0  0  0  0  0  0
  -10.5738    0.3178   -0.5167 H   0  0  0  0  0  0  0  0  0  0  0  0
   -9.1485   -0.5590   -1.1630 H   0  0  0  0  0  0  0  0  0  0  0  0
   -9.8879   -1.1629    0.3397 H   0  0  0  0  0  0  0  0  0  0  0  0
  1  2  1  0
  2  3  1  0
  3  4  2  0
  4  5  1  0
  5  6  2  0
  6  7  1  0
  7  8  2  0
  8  9  1  0
  9 10  1  0
 10 11  2  0
 11 12  1  0
 12 13  2  0
 13 14  1  0
 13 15  1  0
 15 16  1  0
 16 17  1  0
 17 18  2  0
 18 19  1  0
 19 20  2  0
 20 21  1  0
 21 22  2  0
 22 23  1  0
 23 24  2  0
 23 25  2  0
 23 26  1  0
 26 27  1  0
 26 28  1  0
 15 29  2  0
  5 30  1  0
 30 31  1  0
 31 32  1  0
 32 33  1  0
 33 34  1  0
 34 35  1  0
 33 36  1  0
 36 37  1  0
 36 38  1  0
  8  3  1  0
 29 10  1  0
 35 30  1  0
 22 17  1  0
  1 39  1  0
  1 40  1  0
  1 41  1  0
  4 42  1  0
  6 43  1  0
  7 44  1  0
  9 45  1  0
 12 46  1  0
 16 47  1  0
 18 48  1  0
 19 49  1  0
 20 50  1  0
 21 51  1  0
 26 52  1  0
 27 53  1  0
 27 54  1  0
 27 55  1  0
 28 56  1  0
 28 57  1  0
 28 58  1  0
 31 59  1  0
 31 60  1  0
 32 61  1  0
 32 62  1  0
 33 63  1  0
 34 64  1  0
 34 65  1  0
 35 66  1  0
 35 67  1  0
 37 68  1  0
 37 69  1  0
 37 70  1  0
 38 71  1  0
 38 72  1  0
 38 73  1  0
M  END
$$$$
[H]c1c([H])c([H])c2c(c1[H])c1c3c(c4c5c([H])c([H])c([H])c([H])c5n5c4c1n2[C@]1([H])O[C@]5(C([H])([H])[H])[C@]([H])(OC([H])([H])[H])[C@]([H])(N([H])C([H])([H])[H])C1([H])[H])C([H])([H])N([H])C3=O
     RDKit          3D

 61 68  0  0  0  0  0  0  0  0999 V2000
   -4.9647    2.0893   -0.5001 C   0  0  0  0  0  0  0  0  0  0  0  0
   -4.1485    0.9173   -0.6110 N   0  0  0  0  0  0  0  0  0  0  0  0
   -3.1547    0.8915    0.4018 C   0  0  2  0  0  0  0  0  0  0  0  0
   -2.1599    2.0934    0.2761 C   0  0  0  0  0  0  0  0  0  0  0  0
   -0.9701    1.4278    0.0810 C   0  0  1  0  0  0  0  0  0  0  0  0
   -1.1699    0.6674   -1.0620 O   0  0  0  0  0  0  0  0  0  0  0  0
   -1.4214   -0.6660   -0.6075 C   0  0  2  0  0  0  0  0  0  0  0  0
   -2.0298   -1.2882   -1.8881 C   0  0  0  0  0  0  0  0  0  0  0  0
   -2.4117   -0.4705    0.4331 C   0  0  2  0  0  0  0  0  0  0  0  0
   -3.4958   -1.3570    0.1476 O   0  0  0  0  0  0  0  0  0  0  0  0
   -3.7832   -2.1888    1.2017 C   0  0  0  0  0  0  0  0  0  0  0  0
   -0.1106   -1.2246   -0.3667 N   0  0  0  0  0  0  0  0  0  0  0  0
    0.2372   -2.5334   -0.4695 C   0  0  0  0  0  0  0  0  0  0  0  0
   -0.4939   -3.6621   -0.6643 C   0  0  0  0  0  0  0  0  0  0  0  0
    0.1052   -4.9347   -0.7248 C   0  0  0  0  0  0  0  0  0  0  0  0
    1.4707   -5.0525   -0.5831 C   0  0  0  0  0  0  0  0  0  0  0  0
    2.2474   -3.9187   -0.3817 C   0  0  0  0  0  0  0  0  0  0  0  0
    1.6031   -2.7007   -0.3318 C   0  0  0  0  0  0  0  0  0  0  0  0
    2.1212   -1.4634   -0.1322 C   0  0  0  0  0  0  0  0  0  0  0  0
    3.3946   -0.9214    0.0464 C   0  0  0  0  0  0  0  0  0  0  0  0
    4.6791   -1.6664    0.0956 C   0  0  0  0  0  0  0  0  0  0  0  0
    5.6758   -0.6431    0.2981 N   0  0  0  0  0  0  0  0  0  0  0  0
    5.0506    0.6576    0.3682 C   0  0  0  0  0  0  0  0  0  0  0  0
    5.7414    1.6773    0.5390 O   0  0  0  0  0  0  0  0  0  0  0  0
    3.6321    0.4301    0.2061 C   0  0  0  0  0  0  0  0  0  0  0  0
    2.5663    1.3151    0.1965 C   0  0  0  0  0  0  0  0  0  0  0  0
    2.4087    2.6598    0.3747 C   0  0  0  0  0  0  0  0  0  0  0  0
    3.2570    3.6970    0.5815 C   0  0  0  0  0  0  0  0  0  0  0  0
    2.7223    4.9826    0.7263 C   0  0  0  0  0  0  0  0  0  0  0  0
    1.3653    5.1987    0.6613 C   0  0  0  0  0  0  0  0  0  0  0  0
    0.4944    4.1468    0.4506 C   0  0  0  0  0  0  0  0  0  0  0  0
    1.0459    2.8793    0.3097 C   0  0  0  0  0  0  0  0  0  0  0  0
    0.3923    1.7530    0.1032 N   0  0  0  0  0  0  0  0  0  0  0  0
    1.3220    0.7641    0.0201 C   0  0  0  0  0  0  0  0  0  0  0  0
    1.0881   -0.6098   -0.1512 C   0  0  0  0  0  0  0  0  0  0  0  0
   -4.5050    2.7874    0.2181 H   0  0  0  0  0  0  0  0  0  0  0  0
   -5.0152    2.5954   -1.4846 H   0  0  0  0  0  0  0  0  0  0  0  0
   -5.9865    1.8736   -0.1140 H   0  0  0  0  0  0  0  0  0  0  0  0
   -4.6708    0.0501   -0.7072 H   0  0  0  0  0  0  0  0  0  0  0  0
   -3.6459    0.9609    1.3922 H   0  0  0  0  0  0  0  0  0  0  0  0
   -2.2247    2.7003    1.2119 H   0  0  0  0  0  0  0  0  0  0  0  0
   -2.6189    2.7330   -0.5135 H   0  0  0  0  0  0  0  0  0  0  0  0
   -0.9798    0.7663    1.0620 H   0  0  0  0  0  0  0  0  0  0  0  0
   -1.2319   -1.8497   -2.3960 H   0  0  0  0  0  0  0  0  0  0  0  0
   -2.8636   -1.9495   -1.6828 H   0  0  0  0  0  0  0  0  0  0  0  0
   -2.2916   -0.4677   -2.5918 H   0  0  0  0  0  0  0  0  0  0  0  0
   -2.1277   -0.7486    1.4625 H   0  0  0  0  0  0  0  0  0  0  0  0
   -2.9558   -2.8425    1.5144 H   0  0  0  0  0  0  0  0  0  0  0  0
   -4.6392   -2.8240    0.9086 H   0  0  0  0  0  0  0  0  0  0  0  0
   -4.1482   -1.5632    2.0435 H   0  0  0  0  0  0  0  0  0  0  0  0
   -1.5512   -3.6189   -0.7668 H   0  0  0  0  0  0  0  0  0  0  0  0
   -0.5187   -5.8172   -0.8832 H   0  0  0  0  0  0  0  0  0  0  0  0
    1.9167   -6.0362   -0.6324 H   0  0  0  0  0  0  0  0  0  0  0  0
    3.3134   -4.0211   -0.2722 H   0  0  0  0  0  0  0  0  0  0  0  0
    4.7040   -2.3997    0.9357 H   0  0  0  0  0  0  0  0  0  0  0  0
    4.8766   -2.2502   -0.8219 H   0  0  0  0  0  0  0  0  0  0  0  0
    6.6886   -0.8471    0.3779 H   0  0  0  0  0  0  0  0  0  0  0  0
    4.3051    3.5494    0.6320 H   0  0  0  0  0  0  0  0  0  0  0  0
    3.4425    5.7718    0.8891 H   0  0  0  0  0  0  0  0  0  0  0  0
    0.9862    6.2225    0.7794 H   0  0  0  0  0  0  0  0  0  0  0  0
   -0.5649    4.2785    0.3948 H   0  0  0  0  0  0  0  0  0  0  0  0
  1  2  1  0
  2  3  1  0
  3  4  1  0
  4  5  1  0
  5  6  1  0
  6  7  1  0
  7  8  1  6
  7  9  1  0
  9 10  1  0
 10 11  1  0
  7 12  1  0
 12 13  1  0
 13 14  2  0
 14 15  1  0
 15 16  2  0
 16 17  1  0
 17 18  2  0
 18 19  1  0
 19 20  2  0
 20 21  1  0
 21 22  1  0
 22 23  1  0
 23 24  2  0
 23 25  1  0
 25 26  2  0
 26 27  1  0
 27 28  2  0
 28 29  1  0
 29 30  2  0
 30 31  1  0
 31 32  2  0
 32 33  1  0
 33 34  1  0
 34 35  2  0
  9  3  1  0
 35 12  1  0
 33  5  1  0
 18 13  1  0
 35 19  1  0
 25 20  1  0
 34 26  1  0
 32 27  1  0
  1 36  1  0
  1 37  1  0
  1 38  1  0
  2 39  1  0
  3 40  1  1
  4 41  1  0
  4 42  1  0
  5 43  1  1
  8 44  1  0
  8 45  1  0
  8 46  1  0
  9 47  1  1
 11 48  1  0
 11 49  1  0
 11 50  1  0
 14 51  1  0
 15 52  1  0
 16 53  1  0
 17 54  1  0
 21 55  1  0
 21 56  1  0
 22 57  1  0
 28 58  1  0
 29 59  1  0
 30 60  1  0
 31 61  1  0
M  END
$$$$
[H]N=C(N([H])[H])N([H])C([H])([H])C([H])([H])C([H])([H])[C@@]([H])(C(=O)N([H])[C@]([H])(C(=O)N1C([H])([H])C([H])([H])C([H])([H])[C@@]1([H])C(=O)N([H])[C@]([H])(C(=O)O[H])C([H])([H])C(=O)O[H])C([H])([H])C(=O)O[H])N([H])C(=O)[C@@]1([H])C([H])([H])C([H])([H])C([H])([H])[C@@]1([H])N([H])C(=O)OC(C([H])([H])[H])(C([H])([H])[H])C([H])([H])[H]
     RDKit          3D

 98 99  0  0  0  0  0  0  0  0999 V2000
   -8.5823    3.7464    1.1345 C   0  0  0  0  0  0  0  0  0  0  0  0
   -7.1081    3.6068    1.3304 C   0  0  0  0  0  0  0  0  0  0  0  0
   -6.8003    4.0744    2.7581 C   0  0  0  0  0  0  0  0  0  0  0  0
   -6.3644    4.5704    0.4261 C   0  0  0  0  0  0  0  0  0  0  0  0
   -6.6125    2.2996    1.2261 O   0  0  0  0  0  0  0  0  0  0  0  0
   -6.7222    1.5031    0.1224 C   0  0  0  0  0  0  0  0  0  0  0  0
   -7.3330    1.9901   -0.8859 O   0  0  0  0  0  0  0  0  0  0  0  0
   -6.1802    0.1893    0.0928 N   0  0  0  0  0  0  0  0  0  0  0  0
   -6.3464   -0.5820   -1.1202 C   0  0  2  0  0  0  0  0  0  0  0  0
   -6.8703   -1.9494   -0.9523 C   0  0  0  0  0  0  0  0  0  0  0  0
   -6.2865   -2.7545   -2.0832 C   0  0  0  0  0  0  0  0  0  0  0  0
   -5.4838   -1.7821   -2.9268 C   0  0  0  0  0  0  0  0  0  0  0  0
   -5.0606   -0.7439   -1.8759 C   0  0  2  0  0  0  0  0  0  0  0  0
   -3.9629   -1.3706   -1.1205 C   0  0  0  0  0  0  0  0  0  0  0  0
   -4.1665   -1.8701    0.0084 O   0  0  0  0  0  0  0  0  0  0  0  0
   -2.6419   -1.4354   -1.6369 N   0  0  0  0  0  0  0  0  0  0  0  0
   -1.5315   -2.0761   -0.8850 C   0  0  1  0  0  0  0  0  0  0  0  0
   -0.8058   -2.9810   -1.8368 C   0  0  0  0  0  0  0  0  0  0  0  0
    0.3278   -3.7781   -1.2836 C   0  0  0  0  0  0  0  0  0  0  0  0
   -0.1494   -4.6949   -0.1612 C   0  0  0  0  0  0  0  0  0  0  0  0
    0.9873   -5.4345    0.3174 N   0  0  0  0  0  0  0  0  0  0  0  0
    2.0844   -4.8850    1.0201 C   0  0  0  0  0  0  0  0  0  0  0  0
    1.8858   -4.5095    2.3824 N   0  0  0  0  0  0  0  0  0  0  0  0
    3.2308   -4.7066    0.5169 N   0  0  0  0  0  0  0  0  0  0  0  0
   -0.6406   -0.9996   -0.3972 C   0  0  0  0  0  0  0  0  0  0  0  0
   -0.9481    0.1980   -0.7695 O   0  0  0  0  0  0  0  0  0  0  0  0
    0.4877   -1.1184    0.4222 N   0  0  0  0  0  0  0  0  0  0  0  0
    1.2106    0.1274    0.7947 C   0  0  1  0  0  0  0  0  0  0  0  0
    1.7051    0.0102    2.2000 C   0  0  0  0  0  0  0  0  0  0  0  0
    0.5999   -0.1970    3.1740 C   0  0  0  0  0  0  0  0  0  0  0  0
    0.8990   -0.3144    4.5271 O   0  0  0  0  0  0  0  0  0  0  0  0
   -0.6022   -0.2721    2.8307 O   0  0  0  0  0  0  0  0  0  0  0  0
    2.3988    0.1847   -0.1192 C   0  0  0  0  0  0  0  0  0  0  0  0
    2.6726   -0.7874   -0.9090 O   0  0  0  0  0  0  0  0  0  0  0  0
    3.2587    1.3106   -0.1493 N   0  0  0  0  0  0  0  0  0  0  0  0
    3.1172    2.4932    0.6421 C   0  0  0  0  0  0  0  0  0  0  0  0
    3.5525    3.6032   -0.2887 C   0  0  0  0  0  0  0  0  0  0  0  0
    4.3195    2.9262   -1.3982 C   0  0  0  0  0  0  0  0  0  0  0  0
    4.4103    1.4633   -0.9864 C   0  0  1  0  0  0  0  0  0  0  0  0
    5.7095    1.2841   -0.2603 C   0  0  0  0  0  0  0  0  0  0  0  0
    5.7024    0.9727    0.9524 O   0  0  0  0  0  0  0  0  0  0  0  0
    6.9445    1.4656   -0.9350 N   0  0  0  0  0  0  0  0  0  0  0  0
    8.2195    1.2976   -0.2476 C   0  0  1  0  0  0  0  0  0  0  0  0
    9.0459    0.2898   -1.0010 C   0  0  0  0  0  0  0  0  0  0  0  0
   10.3566    0.0447   -0.3896 C   0  0  0  0  0  0  0  0  0  0  0  0
   10.4526   -0.8355    0.6912 O   0  0  0  0  0  0  0  0  0  0  0  0
   11.3988    0.5989   -0.8025 O   0  0  0  0  0  0  0  0  0  0  0  0
    8.9153    2.6064   -0.2577 C   0  0  0  0  0  0  0  0  0  0  0  0
   10.1264    2.8209    0.3563 O   0  0  0  0  0  0  0  0  0  0  0  0
    8.3810    3.5941   -0.8567 O   0  0  0  0  0  0  0  0  0  0  0  0
   -8.8294    3.7756    0.0315 H   0  0  0  0  0  0  0  0  0  0  0  0
   -8.8694    4.7693    1.5096 H   0  0  0  0  0  0  0  0  0  0  0  0
   -9.1929    3.0202    1.6637 H   0  0  0  0  0  0  0  0  0  0  0  0
   -5.6856    4.0841    2.8771 H   0  0  0  0  0  0  0  0  0  0  0  0
   -7.2757    3.3932    3.4619 H   0  0  0  0  0  0  0  0  0  0  0  0
   -7.2186    5.0919    2.8505 H   0  0  0  0  0  0  0  0  0  0  0  0
   -6.5250    4.3631   -0.6475 H   0  0  0  0  0  0  0  0  0  0  0  0
   -5.2836    4.6327    0.6775 H   0  0  0  0  0  0  0  0  0  0  0  0
   -6.8071    5.5852    0.6275 H   0  0  0  0  0  0  0  0  0  0  0  0
   -5.6904   -0.1630    0.9351 H   0  0  0  0  0  0  0  0  0  0  0  0
   -7.0434   -0.0426   -1.8229 H   0  0  0  0  0  0  0  0  0  0  0  0
   -6.5143   -2.4313    0.0057 H   0  0  0  0  0  0  0  0  0  0  0  0
   -7.9913   -2.0004   -0.9533 H   0  0  0  0  0  0  0  0  0  0  0  0
   -5.6103   -3.5726   -1.7348 H   0  0  0  0  0  0  0  0  0  0  0  0
   -7.0785   -3.2476   -2.6728 H   0  0  0  0  0  0  0  0  0  0  0  0
   -6.1454   -1.2521   -3.6422 H   0  0  0  0  0  0  0  0  0  0  0  0
   -4.6320   -2.2355   -3.4344 H   0  0  0  0  0  0  0  0  0  0  0  0
   -4.7445    0.1984   -2.3807 H   0  0  0  0  0  0  0  0  0  0  0  0
   -2.4013   -1.0399   -2.5533 H   0  0  0  0  0  0  0  0  0  0  0  0
   -1.9277   -2.5882    0.0014 H   0  0  0  0  0  0  0  0  0  0  0  0
   -1.5119   -3.7377   -2.2893 H   0  0  0  0  0  0  0  0  0  0  0  0
   -0.4789   -2.3977   -2.7597 H   0  0  0  0  0  0  0  0  0  0  0  0
    0.6580   -4.4420   -2.1628 H   0  0  0  0  0  0  0  0  0  0  0  0
    1.2150   -3.2323   -1.0077 H   0  0  0  0  0  0  0  0  0  0  0  0
   -0.9178   -5.3799   -0.5509 H   0  0  0  0  0  0  0  0  0  0  0  0
   -0.5334   -4.0713    0.6601 H   0  0  0  0  0  0  0  0  0  0  0  0
    1.0218   -6.4754    0.1372 H   0  0  0  0  0  0  0  0  0  0  0  0
    2.0914   -5.1819    3.1543 H   0  0  0  0  0  0  0  0  0  0  0  0
    1.5260   -3.5373    2.5938 H   0  0  0  0  0  0  0  0  0  0  0  0
    3.4869   -4.9462   -0.4672 H   0  0  0  0  0  0  0  0  0  0  0  0
    0.9031   -1.9604    0.8394 H   0  0  0  0  0  0  0  0  0  0  0  0
    0.6333    1.0193    0.5691 H   0  0  0  0  0  0  0  0  0  0  0  0
    2.2850    0.8752    2.5189 H   0  0  0  0  0  0  0  0  0  0  0  0
    2.3934   -0.8760    2.3284 H   0  0  0  0  0  0  0  0  0  0  0  0
    1.3470   -1.1753    4.8221 H   0  0  0  0  0  0  0  0  0  0  0  0
    3.8063    2.4221    1.5125 H   0  0  0  0  0  0  0  0  0  0  0  0
    2.0622    2.6466    0.9768 H   0  0  0  0  0  0  0  0  0  0  0  0
    4.1677    4.3635    0.2379 H   0  0  0  0  0  0  0  0  0  0  0  0
    2.6120    4.0673   -0.6859 H   0  0  0  0  0  0  0  0  0  0  0  0
    5.3022    3.3859   -1.5875 H   0  0  0  0  0  0  0  0  0  0  0  0
    3.7207    2.9227   -2.3522 H   0  0  0  0  0  0  0  0  0  0  0  0
    4.3828    0.7994   -1.8818 H   0  0  0  0  0  0  0  0  0  0  0  0
    6.9671    1.7207   -1.9308 H   0  0  0  0  0  0  0  0  0  0  0  0
    8.0840    0.9861    0.8012 H   0  0  0  0  0  0  0  0  0  0  0  0
    9.1339    0.5960   -2.0673 H   0  0  0  0  0  0  0  0  0  0  0  0
    8.4797   -0.6835   -1.0054 H   0  0  0  0  0  0  0  0  0  0  0  0
   11.2213   -0.6993    1.3662 H   0  0  0  0  0  0  0  0  0  0  0  0
   10.2066    3.4575    1.1426 H   0  0  0  0  0  0  0  0  0  0  0  0
  1  2  1  0
  2  3  1  0
  2  4  1  0
  2  5  1  0
  5  6  1  0
  6  7  2  0
  6  8  1  0
  8  9  1  0
  9 10  1  0
 10 11  1  0
 11 12  1  0
 12 13  1  0
 13 14  1  0
 14 15  2  0
 14 16  1  0
 16 17  1  0
 17 18  1  0
 18 19  1  0
 19 20  1  0
 20 21  1  0
 21 22  1  0
 22 23  1  0
 22 24  2  3
 17 25  1  0
 25 26  2  0
 25 27  1  0
 27 28  1  0
 28 29  1  0
 29 30  1  0
 30 31  1  0
 30 32  2  0
 28 33  1  0
 33 34  2  0
 33 35  1  0
 35 36  1  0
 36 37  1  0
 37 38  1  0
 38 39  1  0
 39 40  1  0
 40 41  2  0
 40 42  1  0
 42 43  1  0
 43 44  1  0
 44 45  1  0
 45 46  1  0
 45 47  2  0
 43 48  1  0
 48 49  1  0
 48 50  2  0
 13  9  1  0
 39 35  1  0
  1 51  1  0
  1 52  1  0
  1 53  1  0
  3 54  1  0
  3 55  1  0
  3 56  1  0
  4 57  1  0
  4 58  1  0
  4 59  1  0
  8 60  1  0
  9 61  1  6
 10 62  1  0
 10 63  1  0
 11 64  1  0
 11 65  1  0
 12 66  1  0
 12 67  1  0
 13 68  1  6
 16 69  1  0
 17 70  1  1
 18 71  1  0
 18 72  1  0
 19 73  1  0
 19 74  1  0
 20 75  1  0
 20 76  1  0
 21 77  1  0
 23 78  1  0
 23 79  1  0
 24 80  1  0
 27 81  1  0
 28 82  1  1
 29 83  1  0
 29 84  1  0
 31 85  1  0
 36 86  1  0
 36 87  1  0
 37 88  1  0
 37 89  1  0
 38 90  1  0
 38 91  1  0
 39 92  1  6
 42 93  1  0
 43 94  1  1
 44 95  1  0
 44 96  1  0
 46 97  1  0
 49 98  1  0
M  END
$$$$
[H]C1=C([H])[C@@]2(C([H])([H])[H])C(=C([H])C1=O)C([H])([H])C([H])([H])[C@]1([H])[C@]2([H])C([H])([H])C([H])([H])[C@]2(C([H])([H])[H])C(=O)C([H])([H])C([H])([H])[C@]21[H]
     RDKit          3D

 45 48  0  0  0  0  0  0  0  0999 V2000
   -2.5789    1.5508   -0.1318 C   0  0  0  0  0  0  0  0  0  0  0  0
   -2.3523    0.2643    0.6239 C   0  0  2  0  0  0  0  0  0  0  0  0
   -1.5354    0.5025    1.8408 C   0  0  0  0  0  0  0  0  0  0  0  0
   -0.2070    1.0855    1.4039 C   0  0  0  0  0  0  0  0  0  0  0  0
    0.5100    0.1431    0.4994 C   0  0  1  0  0  0  0  0  0  0  0  0
   -0.3062   -0.2682   -0.7212 C   0  0  1  0  0  0  0  0  0  0  0  0
    0.3863   -1.4500   -1.3842 C   0  0  0  0  0  0  0  0  0  0  0  0
    1.8215   -1.2074   -1.6869 C   0  0  0  0  0  0  0  0  0  0  0  0
    2.5386   -0.5945   -0.5296 C   0  0  0  0  0  0  0  0  0  0  0  0
    3.6773   -1.0904   -0.0893 C   0  0  0  0  0  0  0  0  0  0  0  0
    4.3453   -0.4769    1.0291 C   0  0  0  0  0  0  0  0  0  0  0  0
    5.4415   -0.9752    1.4329 O   0  0  0  0  0  0  0  0  0  0  0  0
    3.7700    0.6780    1.6668 C   0  0  0  0  0  0  0  0  0  0  0  0
    2.6260    1.1514    1.2017 C   0  0  0  0  0  0  0  0  0  0  0  0
    1.8733    0.6023    0.0785 C   0  0  2  0  0  0  0  0  0  0  0  0
    1.8076    1.6659   -1.0125 C   0  0  0  0  0  0  0  0  0  0  0  0
   -1.6077   -0.7625   -0.2103 C   0  0  2  0  0  0  0  0  0  0  0  0
   -2.6101   -1.1579   -1.2198 C   0  0  0  0  0  0  0  0  0  0  0  0
   -3.9100   -1.1793   -0.4039 C   0  0  0  0  0  0  0  0  0  0  0  0
   -3.6110   -0.4684    0.8525 C   0  0  0  0  0  0  0  0  0  0  0  0
   -4.2554   -0.4774    1.8640 O   0  0  0  0  0  0  0  0  0  0  0  0
   -2.8989    2.3090    0.6410 H   0  0  0  0  0  0  0  0  0  0  0  0
   -3.3969    1.4984   -0.8581 H   0  0  0  0  0  0  0  0  0  0  0  0
   -1.6765    1.9405   -0.6097 H   0  0  0  0  0  0  0  0  0  0  0  0
   -2.0262    1.1599    2.5886 H   0  0  0  0  0  0  0  0  0  0  0  0
   -1.2937   -0.4787    2.3235 H   0  0  0  0  0  0  0  0  0  0  0  0
   -0.3612    2.0841    0.9429 H   0  0  0  0  0  0  0  0  0  0  0  0
    0.4525    1.2586    2.2829 H   0  0  0  0  0  0  0  0  0  0  0  0
    0.6621   -0.8135    1.0774 H   0  0  0  0  0  0  0  0  0  0  0  0
   -0.4107    0.5733   -1.4385 H   0  0  0  0  0  0  0  0  0  0  0  0
    0.3425   -2.2836   -0.6253 H   0  0  0  0  0  0  0  0  0  0  0  0
   -0.1458   -1.7508   -2.2891 H   0  0  0  0  0  0  0  0  0  0  0  0
    2.0027   -0.6486   -2.6327 H   0  0  0  0  0  0  0  0  0  0  0  0
    2.2919   -2.2184   -1.8648 H   0  0  0  0  0  0  0  0  0  0  0  0
    4.0788   -1.9672   -0.6015 H   0  0  0  0  0  0  0  0  0  0  0  0
    4.2609    1.1547    2.5127 H   0  0  0  0  0  0  0  0  0  0  0  0
    2.2355    2.0209    1.7097 H   0  0  0  0  0  0  0  0  0  0  0  0
    1.4666    1.1932   -1.9401 H   0  0  0  0  0  0  0  0  0  0  0  0
    2.8492    2.0224   -1.1581 H   0  0  0  0  0  0  0  0  0  0  0  0
    1.1864    2.5269   -0.7174 H   0  0  0  0  0  0  0  0  0  0  0  0
   -1.4131   -1.6247    0.4652 H   0  0  0  0  0  0  0  0  0  0  0  0
   -2.6956   -0.4855   -2.0848 H   0  0  0  0  0  0  0  0  0  0  0  0
   -2.3838   -2.1889   -1.5708 H   0  0  0  0  0  0  0  0  0  0  0  0
   -4.2891   -2.2008   -0.2707 H   0  0  0  0  0  0  0  0  0  0  0  0
   -4.6608   -0.6168   -0.9865 H   0  0  0  0  0  0  0  0  0  0  0  0
  2  1  1  6
  2  3  1  0
  3  4  1  0
  4  5  1  0
  5  6  1  0
  6  7  1  0
  7  8  1  0
  8  9  1  0
  9 10  2  0
 10 11  1  0
 11 12  2  0
 11 13  1  0
 13 14  2  0
 14 15  1  0
 15 16  1  6
  6 17  1  0
 17 18  1  0
 18 19  1  0
 19 20  1  0
 20 21  2  0
 17  2  1  0
 20  2  1  0
 15  5  1  0
 15  9  1  0
  1 22  1  0
  1 23  1  0
  1 24  1  0
  3 25  1  0
  3 26  1  0
  4 27  1  0
  4 28  1  0
  5 29  1  1
  6 30  1  6
  7 31  1  0
  7 32  1  0
  8 33  1  0
  8 34  1  0
 10 35  1  0
 13 36  1  0
 14 37  1  0
 16 38  1  0
 16 39  1  0
 16 40  1  0
 17 41  1  1
 18 42  1  0
 18 43  1  0
 19 44  1  0
 19 45  1  0
M  END
$$$$
[H]OC([H])([H])[C@@]1([H])N(S(=O)(=O)c2c([H])c([H])c(OC([H])([H])[H])c([H])c2[H])C([H])([H])[C@]([H])(O[H])[C@@]([H])(O[H])[C@@]1([H])O[H]
     RDKit          3D

 41 42  0  0  0  0  0  0  0  0999 V2000
    6.0255    0.5124   -1.5994 C   0  0  0  0  0  0  0  0  0  0  0  0
    5.2907   -0.6660   -1.4164 O   0  0  0  0  0  0  0  0  0  0  0  0
    4.0739   -0.6883   -0.7181 C   0  0  0  0  0  0  0  0  0  0  0  0
    3.3593   -1.8429   -0.5419 C   0  0  0  0  0  0  0  0  0  0  0  0
    2.1492   -1.8426    0.1572 C   0  0  0  0  0  0  0  0  0  0  0  0
    1.6332   -0.6812    0.6933 C   0  0  0  0  0  0  0  0  0  0  0  0
    2.3930    0.4684    0.4900 C   0  0  0  0  0  0  0  0  0  0  0  0
    3.5682    0.4706   -0.1884 C   0  0  0  0  0  0  0  0  0  0  0  0
    0.1249   -0.6173    1.5789 S   0  0  0  0  0  0  0  0  0  0  0  0
    0.3339    0.3196    2.7286 O   0  0  0  0  0  0  0  0  0  0  0  0
   -0.0293   -1.9969    2.2211 O   0  0  0  0  0  0  0  0  0  0  0  0
   -1.2138   -0.3424    0.6441 N   0  0  0  0  0  0  0  0  0  0  0  0
   -1.5268   -1.2968   -0.3518 C   0  0  0  0  0  0  0  0  0  0  0  0
   -2.9403   -1.3200   -0.8149 C   0  0  2  0  0  0  0  0  0  0  0  0
   -2.9670   -1.9367   -2.0822 O   0  0  0  0  0  0  0  0  0  0  0  0
   -3.5363    0.0552   -0.9980 C   0  0  1  0  0  0  0  0  0  0  0  0
   -4.9153   -0.0483   -1.1093 O   0  0  0  0  0  0  0  0  0  0  0  0
   -3.2049    0.9944    0.1067 C   0  0  1  0  0  0  0  0  0  0  0  0
   -3.9457    0.8064    1.2542 O   0  0  0  0  0  0  0  0  0  0  0  0
   -1.6981    0.9405    0.3790 C   0  0  1  0  0  0  0  0  0  0  0  0
   -1.2735    2.0265    1.3162 C   0  0  0  0  0  0  0  0  0  0  0  0
   -1.8823    3.2162    0.8523 O   0  0  0  0  0  0  0  0  0  0  0  0
    6.9089    0.2569   -2.2232 H   0  0  0  0  0  0  0  0  0  0  0  0
    6.3228    0.9883   -0.6384 H   0  0  0  0  0  0  0  0  0  0  0  0
    5.4657    1.2848   -2.1678 H   0  0  0  0  0  0  0  0  0  0  0  0
    3.7507   -2.7764   -0.9593 H   0  0  0  0  0  0  0  0  0  0  0  0
    1.6236   -2.7642    0.2720 H   0  0  0  0  0  0  0  0  0  0  0  0
    2.0301    1.3881    0.8888 H   0  0  0  0  0  0  0  0  0  0  0  0
    4.1139    1.3825   -0.3168 H   0  0  0  0  0  0  0  0  0  0  0  0
   -1.2669   -2.3292   -0.0027 H   0  0  0  0  0  0  0  0  0  0  0  0
   -0.8614   -1.1124   -1.2417 H   0  0  0  0  0  0  0  0  0  0  0  0
   -3.5602   -1.9107   -0.1246 H   0  0  0  0  0  0  0  0  0  0  0  0
   -3.8217   -1.7580   -2.5449 H   0  0  0  0  0  0  0  0  0  0  0  0
   -3.1493    0.5014   -1.9496 H   0  0  0  0  0  0  0  0  0  0  0  0
   -5.2233   -0.9123   -0.7602 H   0  0  0  0  0  0  0  0  0  0  0  0
   -3.4017    2.0337   -0.2511 H   0  0  0  0  0  0  0  0  0  0  0  0
   -3.6576    0.0229    1.7892 H   0  0  0  0  0  0  0  0  0  0  0  0
   -1.2640    1.2458   -0.6244 H   0  0  0  0  0  0  0  0  0  0  0  0
   -0.1859    2.2177    1.2487 H   0  0  0  0  0  0  0  0  0  0  0  0
   -1.5784    1.8950    2.3479 H   0  0  0  0  0  0  0  0  0  0  0  0
   -2.0638    3.8157    1.6386 H   0  0  0  0  0  0  0  0  0  0  0  0
  1  2  1  0
  2  3  1  0
  3  4  2  0
  4  5  1  0
  5  6  2  0
  6  7  1  0
  7  8  2  0
  6  9  1  0
  9 10  2  0
  9 11  2  0
  9 12  1  0
 12 13  1  0
 13 14  1  0
 14 15  1  0
 14 16  1  0
 16 17  1  0
 16 18  1  0
 18 19  1  0
 18 20  1  0
 20 21  1  0
 21 22  1  0
  8  3  1  0
 20 12  1  0
  1 23  1  0
  1 24  1  0
  1 25  1  0
  4 26  1  0
  5 27  1  0
  7 28  1  0
  8 29  1  0
 13 30  1  0
 13 31  1  0
 14 32  1  1
 15 33  1  0
 16 34  1  6
 17 35  1  0
 18 36  1  6
 19 37  1  0
 20 38  1  6
 21 39  1  0
 21 40  1  0
 22 41  1  0
M  END
$$$$
[H]OC(=O)C([H])([H])[C@@]([H])(C(=O)N([H])[C@]([H])(C(=O)O[H])C([H])([H])c1c([H])c([H])c([H])c([H])c1[H])N([H])C(=O)[C@@]([H])(N([H])C(=O)[C@@]([H])(N([H])C(=O)[C@@]([H])(N([H])C(=O)[C@@]([H])(N([H])C(=O)OC([H])([H])c1c([H])c([H])c([H])c([H])c1[H])C([H])([H])c1c([H])c([H])c([H])c([H])c1[H])[C@@]([H])(C([H])([H])[H])C([H])([H])C([H])([H])[H])C([H])([H])c1c([H])c([H])c([H])c([H])c1[H])C([H])([H])c1c([H])c([H])c([H])c([H])c1[H]
     RDKit          3D

131135  0  0  0  0  0  0  0  0999 V2000
    3.5555   -3.9848   -0.1229 C   0  0  0  0  0  0  0  0  0  0  0  0
    3.9585   -2.5668   -0.4125 C   0  0  0  0  0  0  0  0  0  0  0  0
    2.7279   -1.6503   -0.4395 C   0  0  2  0  0  0  0  0  0  0  0  0
    1.8630   -2.2234   -1.5438 C   0  0  0  0  0  0  0  0  0  0  0  0
    3.1754   -0.1995   -0.7692 C   0  0  2  0  0  0  0  0  0  0  0  0
    4.1387    0.1920    0.2879 N   0  0  0  0  0  0  0  0  0  0  0  0
    5.5339    0.2188    0.0660 C   0  0  0  0  0  0  0  0  0  0  0  0
    5.9664   -0.0943   -1.0556 O   0  0  0  0  0  0  0  0  0  0  0  0
    6.4522    0.5983    1.1377 C   0  0  2  0  0  0  0  0  0  0  0  0
    6.4565    2.0745    1.4446 C   0  0  0  0  0  0  0  0  0  0  0  0
    6.8306    2.9364    0.3280 C   0  0  0  0  0  0  0  0  0  0  0  0
    8.1305    3.2861    0.0734 C   0  0  0  0  0  0  0  0  0  0  0  0
    8.4496    4.1014   -0.9764 C   0  0  0  0  0  0  0  0  0  0  0  0
    7.4846    4.5985   -1.8094 C   0  0  0  0  0  0  0  0  0  0  0  0
    6.1600    4.2502   -1.5601 C   0  0  0  0  0  0  0  0  0  0  0  0
    5.8363    3.4245   -0.4988 C   0  0  0  0  0  0  0  0  0  0  0  0
    7.8309    0.1738    0.9295 N   0  0  0  0  0  0  0  0  0  0  0  0
    8.4392   -0.7778    1.7631 C   0  0  0  0  0  0  0  0  0  0  0  0
    7.7847   -1.2934    2.7429 O   0  0  0  0  0  0  0  0  0  0  0  0
    9.7164   -1.2282    1.6246 O   0  0  0  0  0  0  0  0  0  0  0  0
   10.2920   -2.1963    2.4941 C   0  0  0  0  0  0  0  0  0  0  0  0
   11.6775   -2.4526    2.0537 C   0  0  0  0  0  0  0  0  0  0  0  0
   12.5788   -3.1222    2.8753 C   0  0  0  0  0  0  0  0  0  0  0  0
   13.8459   -3.3274    2.4094 C   0  0  0  0  0  0  0  0  0  0  0  0
   14.2424   -2.8855    1.1473 C   0  0  0  0  0  0  0  0  0  0  0  0
   13.3550   -2.2193    0.3229 C   0  0  0  0  0  0  0  0  0  0  0  0
   12.0846   -2.0212    0.8092 C   0  0  0  0  0  0  0  0  0  0  0  0
    2.0397    0.7208   -0.5956 C   0  0  0  0  0  0  0  0  0  0  0  0
    2.0408    1.5753    0.3056 O   0  0  0  0  0  0  0  0  0  0  0  0
    0.9129    0.6550   -1.4432 N   0  0  0  0  0  0  0  0  0  0  0  0
   -0.2410    1.5461   -1.2568 C   0  0  1  0  0  0  0  0  0  0  0  0
   -0.9629    1.8903   -2.4960 C   0  0  0  0  0  0  0  0  0  0  0  0
   -0.1069    2.5796   -3.4954 C   0  0  0  0  0  0  0  0  0  0  0  0
    0.5870    1.8468   -4.4307 C   0  0  0  0  0  0  0  0  0  0  0  0
    1.3800    2.4692   -5.3697 C   0  0  0  0  0  0  0  0  0  0  0  0
    1.4692    3.8435   -5.3597 C   0  0  0  0  0  0  0  0  0  0  0  0
    0.7654    4.5755   -4.4128 C   0  0  0  0  0  0  0  0  0  0  0  0
   -0.0369    3.9615   -3.4614 C   0  0  0  0  0  0  0  0  0  0  0  0
   -1.1069    0.8265   -0.2744 C   0  0  0  0  0  0  0  0  0  0  0  0
   -0.6955   -0.2428    0.2112 O   0  0  0  0  0  0  0  0  0  0  0  0
   -2.3786    1.2872    0.1474 N   0  0  0  0  0  0  0  0  0  0  0  0
   -3.1322    0.5016    1.1371 C   0  0  1  0  0  0  0  0  0  0  0  0
   -3.6414    1.3832    2.2468 C   0  0  0  0  0  0  0  0  0  0  0  0
   -4.5621    2.4401    1.8167 C   0  0  0  0  0  0  0  0  0  0  0  0
   -4.1260    3.6664    1.3818 C   0  0  0  0  0  0  0  0  0  0  0  0
   -5.0176    4.6623    0.9791 C   0  0  0  0  0  0  0  0  0  0  0  0
   -6.3536    4.4283    1.0133 C   0  0  0  0  0  0  0  0  0  0  0  0
   -6.8081    3.2051    1.4472 C   0  0  0  0  0  0  0  0  0  0  0  0
   -5.9196    2.2337    1.8408 C   0  0  0  0  0  0  0  0  0  0  0  0
   -4.2407   -0.1961    0.4287 C   0  0  0  0  0  0  0  0  0  0  0  0
   -4.4941    0.0556   -0.7722 O   0  0  0  0  0  0  0  0  0  0  0  0
   -5.0325   -1.1648    1.0999 N   0  0  0  0  0  0  0  0  0  0  0  0
   -6.1144   -1.8361    0.4170 C   0  0  1  0  0  0  0  0  0  0  0  0
   -5.6657   -3.2291   -0.0271 C   0  0  0  0  0  0  0  0  0  0  0  0
   -5.2628   -4.0877    1.1020 C   0  0  0  0  0  0  0  0  0  0  0  0
   -4.8087   -5.3721    0.8087 O   0  0  0  0  0  0  0  0  0  0  0  0
   -5.2960   -3.7557    2.3115 O   0  0  0  0  0  0  0  0  0  0  0  0
   -7.3340   -1.9674    1.2510 C   0  0  0  0  0  0  0  0  0  0  0  0
   -7.2604   -1.6122    2.4642 O   0  0  0  0  0  0  0  0  0  0  0  0
   -8.5462   -2.4632    0.7378 N   0  0  0  0  0  0  0  0  0  0  0  0
   -9.7571   -2.6219    1.4797 C   0  0  1  0  0  0  0  0  0  0  0  0
  -10.5211   -1.2965    1.5484 C   0  0  0  0  0  0  0  0  0  0  0  0
  -10.8763   -0.7697    0.2262 C   0  0  0  0  0  0  0  0  0  0  0  0
  -12.0462   -1.0686   -0.4147 C   0  0  0  0  0  0  0  0  0  0  0  0
  -12.3492   -0.5339   -1.6661 C   0  0  0  0  0  0  0  0  0  0  0  0
  -11.4833    0.3101   -2.2957 C   0  0  0  0  0  0  0  0  0  0  0  0
  -10.2918    0.6269   -1.6684 C   0  0  0  0  0  0  0  0  0  0  0  0
   -9.9912    0.0994   -0.4329 C   0  0  0  0  0  0  0  0  0  0  0  0
  -10.6098   -3.7377    1.0663 C   0  0  0  0  0  0  0  0  0  0  0  0
  -11.7969   -3.9879    1.7046 O   0  0  0  0  0  0  0  0  0  0  0  0
  -10.2590   -4.4763    0.1221 O   0  0  0  0  0  0  0  0  0  0  0  0
    2.5156   -4.0683    0.2626 H   0  0  0  0  0  0  0  0  0  0  0  0
    3.6515   -4.5671   -1.0679 H   0  0  0  0  0  0  0  0  0  0  0  0
    4.3161   -4.4337    0.5562 H   0  0  0  0  0  0  0  0  0  0  0  0
    4.4841   -2.5391   -1.3788 H   0  0  0  0  0  0  0  0  0  0  0  0
    4.6643   -2.2406    0.3776 H   0  0  0  0  0  0  0  0  0  0  0  0
    2.1479   -1.6877    0.4884 H   0  0  0  0  0  0  0  0  0  0  0  0
    2.1655   -1.8606   -2.5377 H   0  0  0  0  0  0  0  0  0  0  0  0
    2.0492   -3.3420   -1.5995 H   0  0  0  0  0  0  0  0  0  0  0  0
    0.7789   -2.1622   -1.3268 H   0  0  0  0  0  0  0  0  0  0  0  0
    3.6258   -0.2168   -1.7543 H   0  0  0  0  0  0  0  0  0  0  0  0
    3.7244    0.4532    1.2344 H   0  0  0  0  0  0  0  0  0  0  0  0
    6.1025    0.0790    2.0549 H   0  0  0  0  0  0  0  0  0  0  0  0
    5.4797    2.3853    1.8703 H   0  0  0  0  0  0  0  0  0  0  0  0
    7.1941    2.2248    2.2775 H   0  0  0  0  0  0  0  0  0  0  0  0
    8.9018    2.9092    0.7127 H   0  0  0  0  0  0  0  0  0  0  0  0
    9.5141    4.3427   -1.1210 H   0  0  0  0  0  0  0  0  0  0  0  0
    7.7476    5.2450   -2.6333 H   0  0  0  0  0  0  0  0  0  0  0  0
    5.4011    4.6485   -2.2284 H   0  0  0  0  0  0  0  0  0  0  0  0
    4.7744    3.1910   -0.3572 H   0  0  0  0  0  0  0  0  0  0  0  0
    8.3590    0.5908    0.1461 H   0  0  0  0  0  0  0  0  0  0  0  0
   10.1879   -1.9210    3.5570 H   0  0  0  0  0  0  0  0  0  0  0  0
    9.7143   -3.1380    2.3259 H   0  0  0  0  0  0  0  0  0  0  0  0
   12.2143   -3.4417    3.8354 H   0  0  0  0  0  0  0  0  0  0  0  0
   14.5811   -3.8494    3.0175 H   0  0  0  0  0  0  0  0  0  0  0  0
   15.2600   -3.0654    0.7897 H   0  0  0  0  0  0  0  0  0  0  0  0
   13.6139   -1.8597   -0.6595 H   0  0  0  0  0  0  0  0  0  0  0  0
   11.3493   -1.4925    0.1778 H   0  0  0  0  0  0  0  0  0  0  0  0
    0.7972    0.0112   -2.2505 H   0  0  0  0  0  0  0  0  0  0  0  0
    0.1795    2.4676   -0.7649 H   0  0  0  0  0  0  0  0  0  0  0  0
   -1.4731    1.0078   -2.9549 H   0  0  0  0  0  0  0  0  0  0  0  0
   -1.7972    2.6134   -2.2623 H   0  0  0  0  0  0  0  0  0  0  0  0
    0.5557    0.7545   -4.4939 H   0  0  0  0  0  0  0  0  0  0  0  0
    1.9351    1.9264   -6.1173 H   0  0  0  0  0  0  0  0  0  0  0  0
    2.0852    4.3736   -6.0874 H   0  0  0  0  0  0  0  0  0  0  0  0
    0.8128    5.6569   -4.3758 H   0  0  0  0  0  0  0  0  0  0  0  0
   -0.5782    4.5561   -2.7379 H   0  0  0  0  0  0  0  0  0  0  0  0
   -2.7743    2.1322   -0.2275 H   0  0  0  0  0  0  0  0  0  0  0  0
   -2.4504   -0.2824    1.4995 H   0  0  0  0  0  0  0  0  0  0  0  0
   -4.0614    0.7310    3.0451 H   0  0  0  0  0  0  0  0  0  0  0  0
   -2.7521    1.8937    2.7300 H   0  0  0  0  0  0  0  0  0  0  0  0
   -3.0668    3.9145    1.3382 H   0  0  0  0  0  0  0  0  0  0  0  0
   -4.6413    5.6116    0.6416 H   0  0  0  0  0  0  0  0  0  0  0  0
   -7.0827    5.1903    0.7047 H   0  0  0  0  0  0  0  0  0  0  0  0
   -7.8963    3.0422    1.4655 H   0  0  0  0  0  0  0  0  0  0  0  0
   -6.3141    1.2948    2.1843 H   0  0  0  0  0  0  0  0  0  0  0  0
   -4.8215   -1.3765    2.0879 H   0  0  0  0  0  0  0  0  0  0  0  0
   -6.3469   -1.2865   -0.5022 H   0  0  0  0  0  0  0  0  0  0  0  0
   -4.8198   -3.0913   -0.7214 H   0  0  0  0  0  0  0  0  0  0  0  0
   -6.5496   -3.6813   -0.5412 H   0  0  0  0  0  0  0  0  0  0  0  0
   -3.9771   -5.6979    1.3059 H   0  0  0  0  0  0  0  0  0  0  0  0
   -8.5549   -2.7413   -0.2813 H   0  0  0  0  0  0  0  0  0  0  0  0
   -9.4596   -2.7824    2.5617 H   0  0  0  0  0  0  0  0  0  0  0  0
   -9.8690   -0.6170    2.1483 H   0  0  0  0  0  0  0  0  0  0  0  0
  -11.4225   -1.5257    2.1758 H   0  0  0  0  0  0  0  0  0  0  0  0
  -12.7601   -1.7282    0.0403 H   0  0  0  0  0  0  0  0  0  0  0  0
  -13.2790   -0.7926   -2.1312 H   0  0  0  0  0  0  0  0  0  0  0  0
  -11.6819    0.7557   -3.2829 H   0  0  0  0  0  0  0  0  0  0  0  0
   -9.6145    1.3015   -2.1876 H   0  0  0  0  0  0  0  0  0  0  0  0
   -9.0617    0.3456    0.0618 H   0  0  0  0  0  0  0  0  0  0  0  0
  -12.4138   -4.7431    1.4495 H   0  0  0  0  0  0  0  0  0  0  0  0
  1  2  1  0
  2  3  1  0
  3  4  1  0
  3  5  1  0
  5  6  1  0
  6  7  1  0
  7  8  2  0
  7  9  1  0
  9 10  1  0
 10 11  1  0
 11 12  2  0
 12 13  1  0
 13 14  2  0
 14 15  1  0
 15 16  2  0
  9 17  1  0
 17 18  1  0
 18 19  2  0
 18 20  1  0
 20 21  1  0
 21 22  1  0
 22 23  2  0
 23 24  1  0
 24 25  2  0
 25 26  1  0
 26 27  2  0
  5 28  1  0
 28 29  2  0
 28 30  1  0
 30 31  1  0
 31 32  1  0
 32 33  1  0
 33 34  2  0
 34 35  1  0
 35 36  2  0
 36 37  1  0
 37 38  2  0
 31 39  1  0
 39 40  2  0
 39 41  1  0
 41 42  1  0
 42 43  1  0
 43 44  1  0
 44 45  2  0
 45 46  1  0
 46 47  2  0
 47 48  1  0
 48 49  2  0
 42 50  1  0
 50 51  2  0
 50 52  1  0
 52 53  1  0
 53 54  1  0
 54 55  1  0
 55 56  1  0
 55 57  2  0
 53 58  1  0
 58 59  2  0
 58 60  1  0
 60 61  1  0
 61 62  1  0
 62 63  1  0
 63 64  2  0
 64 65  1  0
 65 66  2  0
 66 67  1  0
 67 68  2  0
 61 69  1  0
 69 70  1  0
 69 71  2  0
 16 11  1  0
 27 22  1  0
 38 33  1  0
 49 44  1  0
 68 63  1  0
  1 72  1  0
  1 73  1  0
  1 74  1  0
  2 75  1  0
  2 76  1  0
  3 77  1  1
  4 78  1  0
  4 79  1  0
  4 80  1  0
  5 81  1  6
  6 82  1  0
  9 83  1  1
 10 84  1  0
 10 85  1  0
 12 86  1  0
 13 87  1  0
 14 88  1  0
 15 89  1  0
 16 90  1  0
 17 91  1  0
 21 92  1  0
 21 93  1  0
 23 94  1  0
 24 95  1  0
 25 96  1  0
 26 97  1  0
 27 98  1  0
 30 99  1  0
 31100  1  1
 32101  1  0
 32102  1  0
 34103  1  0
 35104  1  0
 36105  1  0
 37106  1  0
 38107  1  0
 41108  1  0
 42109  1  1
 43110  1  0
 43111  1  0
 45112  1  0
 46113  1  0
 47114  1  0
 48115  1  0
 49116  1  0
 52117  1  0
 53118  1  6
 54119  1  0
 54120  1  0
 56121  1  0
 60122  1  0
 61123  1  1
 62124  1  0
 62125  1  0
 64126  1  0
 65127  1  0
 66128  1  0
 67129  1  0
 68130  1  0
 70131  1  0
M  END
$$$$
[H]OC1([H])OC(=O)C([H])([H])[C@]1([H])N([H])C(=O)[C@@]1([H])N2C(=O)[C@@]([H])(N([H])C(=O)c3nc([H])c([H])c4c([H])c([H])c([H])c([H])c34)C([H])([H])C([H])([H])C([H])([H])C([H])([H])[C@@]2([H])C([H])([H])OC1([H])[H]
     RDKit          3D

 64 68  0  0  0  0  0  0  0  0999 V2000
    5.6538    1.3229    0.7704 O   0  0  0  0  0  0  0  0  0  0  0  0
    5.3517    2.4417   -0.0398 C   0  0  0  0  0  0  0  0  0  0  0  0
    5.5510    3.5785    0.7615 O   0  0  0  0  0  0  0  0  0  0  0  0
    4.4879    4.4459    0.6807 C   0  0  0  0  0  0  0  0  0  0  0  0
    4.3697    5.5809    1.2436 O   0  0  0  0  0  0  0  0  0  0  0  0
    3.4711    3.8483   -0.1824 C   0  0  0  0  0  0  0  0  0  0  0  0
    3.8693    2.4208   -0.3549 C   0  0  2  0  0  0  0  0  0  0  0  0
    3.1994    1.5230    0.5569 N   0  0  0  0  0  0  0  0  0  0  0  0
    2.5312    0.3620    0.1162 C   0  0  0  0  0  0  0  0  0  0  0  0
    2.4713    0.0264   -1.1037 O   0  0  0  0  0  0  0  0  0  0  0  0
    1.8588   -0.5268    1.0980 C   0  0  2  0  0  0  0  0  0  0  0  0
    2.9091   -1.0559    2.0813 C   0  0  0  0  0  0  0  0  0  0  0  0
    3.8568   -1.8403    1.4978 O   0  0  0  0  0  0  0  0  0  0  0  0
    3.4751   -2.6596    0.4829 C   0  0  0  0  0  0  0  0  0  0  0  0
    1.9779   -2.8897    0.3608 C   0  0  2  0  0  0  0  0  0  0  0  0
    1.7328   -3.4223   -1.0144 C   0  0  0  0  0  0  0  0  0  0  0  0
    0.7010   -4.5010   -1.0889 C   0  0  0  0  0  0  0  0  0  0  0  0
   -0.6411   -4.1267   -0.5711 C   0  0  0  0  0  0  0  0  0  0  0  0
   -1.1975   -2.8555   -1.1683 C   0  0  0  0  0  0  0  0  0  0  0  0
   -1.3931   -1.8856   -0.0055 C   0  0  2  0  0  0  0  0  0  0  0  0
   -2.3991   -0.8863   -0.3342 N   0  0  0  0  0  0  0  0  0  0  0  0
   -3.5985   -0.7877    0.3547 C   0  0  0  0  0  0  0  0  0  0  0  0
   -3.7382   -1.6805    1.3054 O   0  0  0  0  0  0  0  0  0  0  0  0
   -4.7202    0.0973    0.2183 C   0  0  0  0  0  0  0  0  0  0  0  0
   -5.9916   -0.4349    0.3331 N   0  0  0  0  0  0  0  0  0  0  0  0
   -7.1043    0.2820    0.2372 C   0  0  0  0  0  0  0  0  0  0  0  0
   -7.0614    1.6317    0.0126 C   0  0  0  0  0  0  0  0  0  0  0  0
   -5.8160    2.2335   -0.1105 C   0  0  0  0  0  0  0  0  0  0  0  0
   -5.7128    3.5835   -0.3068 C   0  0  0  0  0  0  0  0  0  0  0  0
   -4.4956    4.2000   -0.3997 C   0  0  0  0  0  0  0  0  0  0  0  0
   -3.3434    3.4611   -0.2946 C   0  0  0  0  0  0  0  0  0  0  0  0
   -3.4379    2.0950   -0.0968 C   0  0  0  0  0  0  0  0  0  0  0  0
   -4.6587    1.4464   -0.0029 C   0  0  0  0  0  0  0  0  0  0  0  0
   -0.0864   -1.2382    0.2413 C   0  0  0  0  0  0  0  0  0  0  0  0
   -0.1047    0.0385    0.2032 O   0  0  0  0  0  0  0  0  0  0  0  0
    1.2316   -1.6678    0.5198 N   0  0  0  0  0  0  0  0  0  0  0  0
    6.3327    1.5858    1.4232 H   0  0  0  0  0  0  0  0  0  0  0  0
    5.9738    2.4177   -0.9485 H   0  0  0  0  0  0  0  0  0  0  0  0
    2.4355    3.9834    0.1809 H   0  0  0  0  0  0  0  0  0  0  0  0
    3.5484    4.3421   -1.1948 H   0  0  0  0  0  0  0  0  0  0  0  0
    3.7844    2.0673   -1.4054 H   0  0  0  0  0  0  0  0  0  0  0  0
    3.2186    1.7520    1.5657 H   0  0  0  0  0  0  0  0  0  0  0  0
    1.1655    0.1063    1.6942 H   0  0  0  0  0  0  0  0  0  0  0  0
    2.3395   -1.6398    2.8381 H   0  0  0  0  0  0  0  0  0  0  0  0
    3.3846   -0.2063    2.6074 H   0  0  0  0  0  0  0  0  0  0  0  0
    3.9178   -3.6784    0.6965 H   0  0  0  0  0  0  0  0  0  0  0  0
    3.9328   -2.4001   -0.5157 H   0  0  0  0  0  0  0  0  0  0  0  0
    1.7237   -3.6251    1.1605 H   0  0  0  0  0  0  0  0  0  0  0  0
    2.6778   -3.8738   -1.4407 H   0  0  0  0  0  0  0  0  0  0  0  0
    1.4753   -2.6158   -1.7308 H   0  0  0  0  0  0  0  0  0  0  0  0
    1.0357   -5.4106   -0.5847 H   0  0  0  0  0  0  0  0  0  0  0  0
    0.5846   -4.7646   -2.1707 H   0  0  0  0  0  0  0  0  0  0  0  0
   -1.3497   -4.9495   -0.8876 H   0  0  0  0  0  0  0  0  0  0  0  0
   -0.7045   -4.1371    0.5443 H   0  0  0  0  0  0  0  0  0  0  0  0
   -0.5344   -2.3746   -1.9050 H   0  0  0  0  0  0  0  0  0  0  0  0
   -2.1706   -3.0078   -1.6797 H   0  0  0  0  0  0  0  0  0  0  0  0
   -1.7771   -2.4614    0.8565 H   0  0  0  0  0  0  0  0  0  0  0  0
   -2.1927   -0.2564   -1.1474 H   0  0  0  0  0  0  0  0  0  0  0  0
   -8.0668   -0.2324    0.3423 H   0  0  0  0  0  0  0  0  0  0  0  0
   -7.9406    2.2364   -0.0712 H   0  0  0  0  0  0  0  0  0  0  0  0
   -6.6203    4.1888   -0.3922 H   0  0  0  0  0  0  0  0  0  0  0  0
   -4.4326    5.2840   -0.5579 H   0  0  0  0  0  0  0  0  0  0  0  0
   -2.3994    3.9695   -0.3697 H   0  0  0  0  0  0  0  0  0  0  0  0
   -2.5413    1.5397    0.0220 H   0  0  0  0  0  0  0  0  0  0  0  0
  1  2  1  0
  2  3  1  0
  3  4  1  0
  4  5  2  0
  4  6  1  0
  6  7  1  0
  7  8  1  0
  8  9  1  0
  9 10  2  0
  9 11  1  0
 11 12  1  0
 12 13  1  0
 13 14  1  0
 14 15  1  0
 15 16  1  0
 16 17  1  0
 17 18  1  0
 18 19  1  0
 19 20  1  0
 20 21  1  0
 21 22  1  0
 22 23  2  0
 22 24  1  0
 24 25  2  0
 25 26  1  0
 26 27  2  0
 27 28  1  0
 28 29  2  0
 29 30  1  0
 30 31  2  0
 31 32  1  0
 32 33  2  0
 20 34  1  0
 34 35  2  0
 34 36  1  0
  7  2  1  0
 36 11  1  0
 36 15  1  0
 33 24  1  0
 33 28  1  0
  1 37  1  0
  2 38  1  0
  6 39  1  0
  6 40  1  0
  7 41  1  6
  8 42  1  0
 11 43  1  1
 12 44  1  0
 12 45  1  0
 14 46  1  0
 14 47  1  0
 15 48  1  1
 16 49  1  0
 16 50  1  0
 17 51  1  0
 17 52  1  0
 18 53  1  0
 18 54  1  0
 19 55  1  0
 19 56  1  0
 20 57  1  1
 21 58  1  0
 26 59  1  0
 27 60  1  0
 29 61  1  0
 30 62  1  0
 31 63  1  0
 32 64  1  0
M  END
$$$$
[H]O[C@@]1([H])C([H])([H])C([H])(OC(=O)N([H])C(C([H])([H])[H])(C([H])([H])[H])C([H])([H])[H])C2([H])C([H])(N3C([H])([H])C([H])([H])C([H])([H])C([H])([H])C3([H])[H])O[C@@]2([H])[C@]1([H])C([H])([H])[C@@]1([H])N([H])C([H])([H])C([H])([H])C([H])([H])C1([H])[H]
     RDKit          3D

 71 74  0  0  0  0  0  0  0  0999 V2000
   -0.8685    3.4389   -1.7864 C   0  0  0  0  0  0  0  0  0  0  0  0
   -0.3625    4.7281   -2.3323 C   0  0  0  0  0  0  0  0  0  0  0  0
   -0.8613    5.9381   -1.5832 C   0  0  0  0  0  0  0  0  0  0  0  0
   -0.5400    5.7105   -0.1204 C   0  0  0  0  0  0  0  0  0  0  0  0
   -1.1430    4.4389    0.3937 C   0  0  0  0  0  0  0  0  0  0  0  0
   -0.8827    3.2900   -0.3971 N   0  0  0  0  0  0  0  0  0  0  0  0
    0.0481    2.3596    0.1731 C   0  0  0  0  0  0  0  0  0  0  0  0
   -0.1771    0.9787   -0.2728 C   0  0  0  0  0  0  0  0  0  0  0  0
   -0.6141   -0.0440    0.7415 C   0  0  0  0  0  0  0  0  0  0  0  0
   -1.9674    0.0656    1.0162 O   0  0  0  0  0  0  0  0  0  0  0  0
   -2.8844   -0.9106    0.6819 C   0  0  0  0  0  0  0  0  0  0  0  0
   -4.2823   -0.7828    0.9714 N   0  0  0  0  0  0  0  0  0  0  0  0
   -5.2004   -1.8237    0.6041 C   0  0  0  0  0  0  0  0  0  0  0  0
   -6.6230   -1.4902    0.9998 C   0  0  0  0  0  0  0  0  0  0  0  0
   -5.2290   -2.0627   -0.9036 C   0  0  0  0  0  0  0  0  0  0  0  0
   -4.8388   -3.1641    1.2348 C   0  0  0  0  0  0  0  0  0  0  0  0
   -2.4120   -1.9187    0.1067 O   0  0  0  0  0  0  0  0  0  0  0  0
    0.2933   -0.0301    1.9155 C   0  0  0  0  0  0  0  0  0  0  0  0
    1.6433   -0.5414    1.4239 C   0  0  2  0  0  0  0  0  0  0  0  0
    2.5144   -0.3871    2.5322 O   0  0  0  0  0  0  0  0  0  0  0  0
    2.1642    0.1127    0.2273 C   0  0  1  0  0  0  0  0  0  0  0  0
    2.8292   -0.8709   -0.6951 C   0  0  0  0  0  0  0  0  0  0  0  0
    3.9976   -1.6146   -0.1924 C   0  0  1  0  0  0  0  0  0  0  0  0
    3.8401   -2.4611    0.9351 N   0  0  0  0  0  0  0  0  0  0  0  0
    4.0971   -3.8745    0.5907 C   0  0  0  0  0  0  0  0  0  0  0  0
    5.5492   -3.9519    0.2236 C   0  0  0  0  0  0  0  0  0  0  0  0
    5.7983   -3.1495   -1.0098 C   0  0  0  0  0  0  0  0  0  0  0  0
    4.5740   -2.3914   -1.3936 C   0  0  0  0  0  0  0  0  0  0  0  0
    1.2448    0.9498   -0.6012 C   0  0  2  0  0  0  0  0  0  0  0  0
    1.3213    2.3223   -0.3794 O   0  0  0  0  0  0  0  0  0  0  0  0
   -1.9206    3.3023   -2.1752 H   0  0  0  0  0  0  0  0  0  0  0  0
   -0.2902    2.6164   -2.2732 H   0  0  0  0  0  0  0  0  0  0  0  0
   -0.7784    4.8257   -3.3784 H   0  0  0  0  0  0  0  0  0  0  0  0
    0.7480    4.7373   -2.4709 H   0  0  0  0  0  0  0  0  0  0  0  0
   -1.9388    6.0577   -1.7782 H   0  0  0  0  0  0  0  0  0  0  0  0
   -0.2908    6.8291   -1.9163 H   0  0  0  0  0  0  0  0  0  0  0  0
   -0.9866    6.5635    0.4458 H   0  0  0  0  0  0  0  0  0  0  0  0
    0.5505    5.7713    0.0063 H   0  0  0  0  0  0  0  0  0  0  0  0
   -2.2309    4.5848    0.5460 H   0  0  0  0  0  0  0  0  0  0  0  0
   -0.7049    4.2589    1.4167 H   0  0  0  0  0  0  0  0  0  0  0  0
    0.1439    2.5714    1.2564 H   0  0  0  0  0  0  0  0  0  0  0  0
   -0.8712    0.9201   -1.1474 H   0  0  0  0  0  0  0  0  0  0  0  0
   -0.4620   -1.0320    0.2326 H   0  0  0  0  0  0  0  0  0  0  0  0
   -4.6491    0.0650    1.4505 H   0  0  0  0  0  0  0  0  0  0  0  0
   -7.2195   -2.4125    0.8107 H   0  0  0  0  0  0  0  0  0  0  0  0
   -6.9965   -0.7355    0.2541 H   0  0  0  0  0  0  0  0  0  0  0  0
   -6.7075   -1.1181    2.0361 H   0  0  0  0  0  0  0  0  0  0  0  0
   -6.0926   -2.7554   -1.0821 H   0  0  0  0  0  0  0  0  0  0  0  0
   -4.3415   -2.5940   -1.2649 H   0  0  0  0  0  0  0  0  0  0  0  0
   -5.4244   -1.1457   -1.4671 H   0  0  0  0  0  0  0  0  0  0  0  0
   -4.1286   -2.9804    2.0592 H   0  0  0  0  0  0  0  0  0  0  0  0
   -5.7563   -3.6713    1.6248 H   0  0  0  0  0  0  0  0  0  0  0  0
   -4.3149   -3.8228    0.5085 H   0  0  0  0  0  0  0  0  0  0  0  0
    0.4722    0.9264    2.3947 H   0  0  0  0  0  0  0  0  0  0  0  0
   -0.0677   -0.8160    2.6425 H   0  0  0  0  0  0  0  0  0  0  0  0
    1.5002   -1.6265    1.2718 H   0  0  0  0  0  0  0  0  0  0  0  0
    2.0062   -0.4618    3.3780 H   0  0  0  0  0  0  0  0  0  0  0  0
    2.9735    0.8401    0.5764 H   0  0  0  0  0  0  0  0  0  0  0  0
    3.1544   -0.3567   -1.6585 H   0  0  0  0  0  0  0  0  0  0  0  0
    2.0640   -1.6140   -1.0971 H   0  0  0  0  0  0  0  0  0  0  0  0
    4.8290   -0.8760    0.0449 H   0  0  0  0  0  0  0  0  0  0  0  0
    4.5518   -2.2520    1.6676 H   0  0  0  0  0  0  0  0  0  0  0  0
    3.4240   -4.2323   -0.1925 H   0  0  0  0  0  0  0  0  0  0  0  0
    3.9425   -4.5092    1.4855 H   0  0  0  0  0  0  0  0  0  0  0  0
    6.1425   -3.5337    1.0645 H   0  0  0  0  0  0  0  0  0  0  0  0
    5.9060   -4.9955    0.0970 H   0  0  0  0  0  0  0  0  0  0  0  0
    6.0024   -3.8723   -1.8522 H   0  0  0  0  0  0  0  0  0  0  0  0
    6.6886   -2.4958   -0.9072 H   0  0  0  0  0  0  0  0  0  0  0  0
    4.8533   -1.6061   -2.1272 H   0  0  0  0  0  0  0  0  0  0  0  0
    3.8047   -3.0191   -1.8687 H   0  0  0  0  0  0  0  0  0  0  0  0
    1.3866    0.8010   -1.7176 H   0  0  0  0  0  0  0  0  0  0  0  0
  1  2  1  0
  2  3  1  0
  3  4  1  0
  4  5  1  0
  5  6  1  0
  6  7  1  0
  7  8  1  0
  8  9  1  0
  9 10  1  0
 10 11  1  0
 11 12  1  0
 12 13  1  0
 13 14  1  0
 13 15  1  0
 13 16  1  0
 11 17  2  0
  9 18  1  0
 18 19  1  0
 19 20  1  0
 19 21  1  0
 21 22  1  0
 22 23  1  0
 23 24  1  0
 24 25  1  0
 25 26  1  0
 26 27  1  0
 27 28  1  0
 21 29  1  0
 29 30  1  0
  6  1  1  0
 30  7  1  0
 29  8  1  0
 28 23  1  0
  1 31  1  0
  1 32  1  0
  2 33  1  0
  2 34  1  0
  3 35  1  0
  3 36  1  0
  4 37  1  0
  4 38  1  0
  5 39  1  0
  5 40  1  0
  7 41  1  0
  8 42  1  0
  9 43  1  0
 12 44  1  0
 14 45  1  0
 14 46  1  0
 14 47  1  0
 15 48  1  0
 15 49  1  0
 15 50  1  0
 16 51  1  0
 16 52  1  0
 16 53  1  0
 18 54  1  0
 18 55  1  0
 19 56  1  6
 20 57  1  0
 21 58  1  1
 22 59  1  0
 22 60  1  0
 23 61  1  1
 24 62  1  0
 25 63  1  0
 25 64  1  0
 26 65  1  0
 26 66  1  0
 27 67  1  0
 27 68  1  0
 28 69  1  0
 28 70  1  0
 29 71  1  6
M  END
$$$$
[H]OC(=O)C([H])([H])[C@@]([H])(C(=O)O[H])N([H])C(=O)[C@@]([H])(N([H])C(=O)[C@@]([H])(N([H])C(=O)[C@@]([H])(N([H])C(=O)[C@@]([H])(N([H])C(=O)OC([H])([H])c1c([H])c([H])c([H])c([H])c1[H])C([H])([H])c1c([H])c([H])c([H])c([H])c1[H])C([H])([H])C([H])(C([H])([H])[H])C([H])([H])[H])C([H])([H])C([H])(C([H])([H])[H])C([H])([H])[H])C([H])([H])[H]
     RDKit          3D

100101  0  0  0  0  0  0  0  0999 V2000
    0.7219    0.1894    3.3604 C   0  0  0  0  0  0  0  0  0  0  0  0
    0.9128   -0.5858    2.0426 C   0  0  0  0  0  0  0  0  0  0  0  0
    0.2976   -1.9524    2.2487 C   0  0  0  0  0  0  0  0  0  0  0  0
    0.2807    0.2096    0.9707 C   0  0  0  0  0  0  0  0  0  0  0  0
    0.3893   -0.4203   -0.4551 C   0  0  2  0  0  0  0  0  0  0  0  0
    1.7147   -0.4990   -0.7655 N   0  0  0  0  0  0  0  0  0  0  0  0
    2.8329    0.2888   -0.4068 C   0  0  0  0  0  0  0  0  0  0  0  0
    2.7224    1.3344    0.2223 O   0  0  0  0  0  0  0  0  0  0  0  0
    4.2740   -0.1369   -0.7467 C   0  0  2  0  0  0  0  0  0  0  0  0
    4.2901   -1.5469   -0.1098 C   0  0  0  0  0  0  0  0  0  0  0  0
    5.4773   -2.3302   -0.2199 C   0  0  0  0  0  0  0  0  0  0  0  0
    5.8009   -2.9514   -1.4365 C   0  0  0  0  0  0  0  0  0  0  0  0
    6.8202   -3.8191   -1.5791 C   0  0  0  0  0  0  0  0  0  0  0  0
    7.5941   -4.1273   -0.4848 C   0  0  0  0  0  0  0  0  0  0  0  0
    7.3013   -3.5215    0.7422 C   0  0  0  0  0  0  0  0  0  0  0  0
    6.2773   -2.6468    0.8878 C   0  0  0  0  0  0  0  0  0  0  0  0
    5.1841    0.7256   -0.1143 N   0  0  0  0  0  0  0  0  0  0  0  0
    6.5163    0.8880    0.1100 C   0  0  0  0  0  0  0  0  0  0  0  0
    7.4493    0.1440   -0.3236 O   0  0  0  0  0  0  0  0  0  0  0  0
    6.9693    1.9421    0.8948 O   0  0  0  0  0  0  0  0  0  0  0  0
    8.1298    2.3545    1.3635 C   0  0  0  0  0  0  0  0  0  0  0  0
    9.2553    2.6977    0.4927 C   0  0  0  0  0  0  0  0  0  0  0  0
   10.4533    3.0091    1.2074 C   0  0  0  0  0  0  0  0  0  0  0  0
   11.5615    3.3155    0.4690 C   0  0  0  0  0  0  0  0  0  0  0  0
   11.5719    3.3358   -0.8708 C   0  0  0  0  0  0  0  0  0  0  0  0
   10.4324    3.0418   -1.5833 C   0  0  0  0  0  0  0  0  0  0  0  0
    9.2935    2.7275   -0.8515 C   0  0  0  0  0  0  0  0  0  0  0  0
   -0.7334    0.0903   -1.2308 C   0  0  0  0  0  0  0  0  0  0  0  0
   -0.5851    0.8194   -2.2450 O   0  0  0  0  0  0  0  0  0  0  0  0
   -2.0283   -0.2879   -0.7628 N   0  0  0  0  0  0  0  0  0  0  0  0
   -3.3375   -0.3839   -0.6611 C   0  0  1  0  0  0  0  0  0  0  0  0
   -4.1370    0.8522   -0.1732 C   0  0  0  0  0  0  0  0  0  0  0  0
   -3.7159    1.3164    1.1709 C   0  0  0  0  0  0  0  0  0  0  0  0
   -3.8802    0.2248    2.1940 C   0  0  0  0  0  0  0  0  0  0  0  0
   -4.6134    2.4661    1.6328 C   0  0  0  0  0  0  0  0  0  0  0  0
   -4.1993   -0.9738   -1.7633 C   0  0  0  0  0  0  0  0  0  0  0  0
   -3.7890   -1.0189   -2.9321 O   0  0  0  0  0  0  0  0  0  0  0  0
   -5.4219   -1.4525   -1.3542 N   0  0  0  0  0  0  0  0  0  0  0  0
   -6.5554   -2.0969   -1.8885 C   0  0  1  0  0  0  0  0  0  0  0  0
   -6.9509   -3.2927   -1.1079 C   0  0  0  0  0  0  0  0  0  0  0  0
   -7.6800   -1.0791   -2.1002 C   0  0  0  0  0  0  0  0  0  0  0  0
   -7.7745   -0.5716   -3.2173 O   0  0  0  0  0  0  0  0  0  0  0  0
   -8.5046   -0.7718   -1.0178 N   0  0  0  0  0  0  0  0  0  0  0  0
   -9.5966    0.0223   -0.6897 C   0  0  1  0  0  0  0  0  0  0  0  0
   -9.2704    1.1333    0.2791 C   0  0  0  0  0  0  0  0  0  0  0  0
   -8.3102    2.1307   -0.2535 C   0  0  0  0  0  0  0  0  0  0  0  0
   -7.9048    3.1904    0.5499 O   0  0  0  0  0  0  0  0  0  0  0  0
   -7.8123    2.0944   -1.4052 O   0  0  0  0  0  0  0  0  0  0  0  0
  -10.3757    0.6922   -1.7917 C   0  0  0  0  0  0  0  0  0  0  0  0
  -11.4079    1.5224   -1.3015 O   0  0  0  0  0  0  0  0  0  0  0  0
  -10.1493    0.5410   -2.9704 O   0  0  0  0  0  0  0  0  0  0  0  0
    1.0016    1.2396    3.2387 H   0  0  0  0  0  0  0  0  0  0  0  0
    1.2717   -0.3588    4.1291 H   0  0  0  0  0  0  0  0  0  0  0  0
   -0.3785    0.1164    3.5587 H   0  0  0  0  0  0  0  0  0  0  0  0
    1.9789   -0.7542    1.8656 H   0  0  0  0  0  0  0  0  0  0  0  0
    0.6014   -2.2820    3.2802 H   0  0  0  0  0  0  0  0  0  0  0  0
   -0.7829   -1.8565    2.2380 H   0  0  0  0  0  0  0  0  0  0  0  0
    0.6981   -2.7072    1.5556 H   0  0  0  0  0  0  0  0  0  0  0  0
   -0.8193    0.1970    1.1689 H   0  0  0  0  0  0  0  0  0  0  0  0
    0.5642    1.2566    0.9725 H   0  0  0  0  0  0  0  0  0  0  0  0
    0.0616   -1.5357   -0.2282 H   0  0  0  0  0  0  0  0  0  0  0  0
    1.9974   -1.3100   -1.4571 H   0  0  0  0  0  0  0  0  0  0  0  0
    4.4128   -0.2611   -1.8189 H   0  0  0  0  0  0  0  0  0  0  0  0
    4.0686   -1.3381    0.9951 H   0  0  0  0  0  0  0  0  0  0  0  0
    3.3948   -2.1068   -0.5027 H   0  0  0  0  0  0  0  0  0  0  0  0
    5.2041   -2.7215   -2.3069 H   0  0  0  0  0  0  0  0  0  0  0  0
    7.0313   -4.2800   -2.5655 H   0  0  0  0  0  0  0  0  0  0  0  0
    8.4247   -4.8038   -0.5147 H   0  0  0  0  0  0  0  0  0  0  0  0
    7.9400   -3.7874    1.5796 H   0  0  0  0  0  0  0  0  0  0  0  0
    6.0422   -2.1661    1.8544 H   0  0  0  0  0  0  0  0  0  0  0  0
    4.5833    1.6171    0.3162 H   0  0  0  0  0  0  0  0  0  0  0  0
    8.5695    1.6456    2.1876 H   0  0  0  0  0  0  0  0  0  0  0  0
    7.9111    3.2626    2.0644 H   0  0  0  0  0  0  0  0  0  0  0  0
   10.4587    2.9959    2.2681 H   0  0  0  0  0  0  0  0  0  0  0  0
   12.4762    3.5574    1.0648 H   0  0  0  0  0  0  0  0  0  0  0  0
   12.4953    3.5885   -1.3939 H   0  0  0  0  0  0  0  0  0  0  0  0
   10.4476    3.0487   -2.6588 H   0  0  0  0  0  0  0  0  0  0  0  0
    8.3995    2.5169   -1.4136 H   0  0  0  0  0  0  0  0  0  0  0  0
   -1.6417   -1.1119    0.0909 H   0  0  0  0  0  0  0  0  0  0  0  0
   -3.5942   -1.1459    0.2208 H   0  0  0  0  0  0  0  0  0  0  0  0
   -5.2162    0.5145   -0.1665 H   0  0  0  0  0  0  0  0  0  0  0  0
   -4.0700    1.5875   -0.9907 H   0  0  0  0  0  0  0  0  0  0  0  0
   -2.6701    1.6357    1.1337 H   0  0  0  0  0  0  0  0  0  0  0  0
   -3.6908    0.6809    3.2222 H   0  0  0  0  0  0  0  0  0  0  0  0
   -3.1256   -0.5988    2.0759 H   0  0  0  0  0  0  0  0  0  0  0  0
   -4.8844   -0.2077    2.1602 H   0  0  0  0  0  0  0  0  0  0  0  0
   -4.7582    3.1786    0.8078 H   0  0  0  0  0  0  0  0  0  0  0  0
   -4.1604    2.8981    2.5289 H   0  0  0  0  0  0  0  0  0  0  0  0
   -5.5989    1.9756    1.8703 H   0  0  0  0  0  0  0  0  0  0  0  0
   -5.5692   -1.3534   -0.2473 H   0  0  0  0  0  0  0  0  0  0  0  0
   -6.2858   -2.4312   -2.9401 H   0  0  0  0  0  0  0  0  0  0  0  0
   -7.5621   -3.1168   -0.2081 H   0  0  0  0  0  0  0  0  0  0  0  0
   -5.9820   -3.7353   -0.7158 H   0  0  0  0  0  0  0  0  0  0  0  0
   -7.3493   -4.1125   -1.7636 H   0  0  0  0  0  0  0  0  0  0  0  0
   -8.1308   -1.3045   -0.0857 H   0  0  0  0  0  0  0  0  0  0  0  0
  -10.4409   -0.5915   -0.2119 H   0  0  0  0  0  0  0  0  0  0  0  0
  -10.1690    1.6379    0.6975 H   0  0  0  0  0  0  0  0  0  0  0  0
   -8.7583    0.6856    1.1868 H   0  0  0  0  0  0  0  0  0  0  0  0
   -8.2138    4.1430    0.2776 H   0  0  0  0  0  0  0  0  0  0  0  0
  -11.9724    1.1660   -0.5290 H   0  0  0  0  0  0  0  0  0  0  0  0
  1  2  1  0
  2  3  1  0
  2  4  1  0
  4  5  1  0
  5  6  1  0
  6  7  1  0
  7  8  2  0
  7  9  1  0
  9 10  1  0
 10 11  1  0
 11 12  2  0
 12 13  1  0
 13 14  2  0
 14 15  1  0
 15 16  2  0
  9 17  1  0
 17 18  1  0
 18 19  2  0
 18 20  1  0
 20 21  1  0
 21 22  1  0
 22 23  2  0
 23 24  1  0
 24 25  2  0
 25 26  1  0
 26 27  2  0
  5 28  1  0
 28 29  2  0
 28 30  1  0
 30 31  1  0
 31 32  1  0
 32 33  1  0
 33 34  1  0
 33 35  1  0
 31 36  1  0
 36 37  2  0
 36 38  1  0
 38 39  1  0
 39 40  1  0
 39 41  1  0
 41 42  2  0
 41 43  1  0
 43 44  1  0
 44 45  1  0
 45 46  1  0
 46 47  1  0
 46 48  2  0
 44 49  1  0
 49 50  1  0
 49 51  2  0
 16 11  1  0
 27 22  1  0
  1 52  1  0
  1 53  1  0
  1 54  1  0
  2 55  1  0
  3 56  1  0
  3 57  1  0
  3 58  1  0
  4 59  1  0
  4 60  1  0
  5 61  1  1
  6 62  1  0
  9 63  1  6
 10 64  1  0
 10 65  1  0
 12 66  1  0
 13 67  1  0
 14 68  1  0
 15 69  1  0
 16 70  1  0
 17 71  1  0
 21 72  1  0
 21 73  1  0
 23 74  1  0
 24 75  1  0
 25 76  1  0
 26 77  1  0
 27 78  1  0
 30 79  1  0
 31 80  1  1
 32 81  1  0
 32 82  1  0
 33 83  1  0
 34 84  1  0
 34 85  1  0
 34 86  1  0
 35 87  1  0
 35 88  1  0
 35 89  1  0
 38 90  1  0
 39 91  1  6
 40 92  1  0
 40 93  1  0
 40 94  1  0
 43 95  1  0
 44 96  1  1
 45 97  1  0
 45 98  1  0
 47 99  1  0
 50100  1  0
M  END
$$$$
[H]OC(=O)C([H])([H])[C@@]([H])(C(=O)N([H])[H])N([H])C(=O)[C@@]([H])(N([H])C(=O)[C@@]([H])(N([H])C(=O)C([H])([H])[H])C([H])([H])c1c([H])n([H])c2c([H])c([H])c([H])c([H])c12)C([H])([H])c1c([H])c([H])c([H])c([H])c1[H]
     RDKit          3D

 66 68  0  0  0  0  0  0  0  0999 V2000
    5.0224   -3.2991   -1.0046 C   0  0  0  0  0  0  0  0  0  0  0  0
    3.9646   -2.6144   -0.2284 C   0  0  0  0  0  0  0  0  0  0  0  0
    3.7473   -2.9915    0.9472 O   0  0  0  0  0  0  0  0  0  0  0  0
    3.1790   -1.5479   -0.7477 N   0  0  0  0  0  0  0  0  0  0  0  0
    2.1533   -0.8872    0.0071 C   0  0  1  0  0  0  0  0  0  0  0  0
    2.3052    0.5870    0.1653 C   0  0  0  0  0  0  0  0  0  0  0  0
    3.5630    0.9237    0.8523 C   0  0  0  0  0  0  0  0  0  0  0  0
    3.6448    1.1482    2.2391 C   0  0  0  0  0  0  0  0  0  0  0  0
    4.9201    1.3960    2.5576 N   0  0  0  0  0  0  0  0  0  0  0  0
    5.6661    1.3432    1.4457 C   0  0  0  0  0  0  0  0  0  0  0  0
    7.0405    1.5386    1.2456 C   0  0  0  0  0  0  0  0  0  0  0  0
    7.6098    1.4472   -0.0215 C   0  0  0  0  0  0  0  0  0  0  0  0
    6.7596    1.1584   -1.0552 C   0  0  0  0  0  0  0  0  0  0  0  0
    5.4058    0.9637   -0.8746 C   0  0  0  0  0  0  0  0  0  0  0  0
    4.8473    1.0543    0.3859 C   0  0  0  0  0  0  0  0  0  0  0  0
    0.8228   -1.1475   -0.6518 C   0  0  0  0  0  0  0  0  0  0  0  0
    0.7742   -1.7936   -1.7219 O   0  0  0  0  0  0  0  0  0  0  0  0
   -0.3821   -0.6782   -0.0879 N   0  0  0  0  0  0  0  0  0  0  0  0
   -1.6656   -0.8902   -0.6727 C   0  0  1  0  0  0  0  0  0  0  0  0
   -2.4386   -1.9981    0.0155 C   0  0  0  0  0  0  0  0  0  0  0  0
   -2.6900   -1.7991    1.4346 C   0  0  0  0  0  0  0  0  0  0  0  0
   -3.8139   -1.1669    1.9484 C   0  0  0  0  0  0  0  0  0  0  0  0
   -3.9226   -1.0516    3.3037 C   0  0  0  0  0  0  0  0  0  0  0  0
   -2.9520   -1.5440    4.1503 C   0  0  0  0  0  0  0  0  0  0  0  0
   -1.8248   -2.1767    3.6714 C   0  0  0  0  0  0  0  0  0  0  0  0
   -1.7002   -2.3007    2.3043 C   0  0  0  0  0  0  0  0  0  0  0  0
   -2.5078    0.3146   -0.7905 C   0  0  0  0  0  0  0  0  0  0  0  0
   -2.1345    1.4271   -0.3143 O   0  0  0  0  0  0  0  0  0  0  0  0
   -3.7692    0.2545   -1.4483 N   0  0  0  0  0  0  0  0  0  0  0  0
   -4.6175    1.4514   -1.5568 C   0  0  1  0  0  0  0  0  0  0  0  0
   -4.4496    1.9958   -2.9594 C   0  0  0  0  0  0  0  0  0  0  0  0
   -5.2914    3.2047   -3.0981 C   0  0  0  0  0  0  0  0  0  0  0  0
   -4.8369    4.3787   -2.4985 O   0  0  0  0  0  0  0  0  0  0  0  0
   -6.3865    3.2601   -3.7133 O   0  0  0  0  0  0  0  0  0  0  0  0
   -5.9930    1.1231   -1.1995 C   0  0  0  0  0  0  0  0  0  0  0  0
   -7.0893    2.0249   -1.1285 N   0  0  0  0  0  0  0  0  0  0  0  0
   -6.2654   -0.0882   -0.9160 O   0  0  0  0  0  0  0  0  0  0  0  0
    4.8062   -3.3024   -2.1128 H   0  0  0  0  0  0  0  0  0  0  0  0
    5.1198   -4.3812   -0.7145 H   0  0  0  0  0  0  0  0  0  0  0  0
    5.9830   -2.7637   -0.8930 H   0  0  0  0  0  0  0  0  0  0  0  0
    3.3448   -1.2194   -1.7389 H   0  0  0  0  0  0  0  0  0  0  0  0
    2.0830   -1.4171    0.9957 H   0  0  0  0  0  0  0  0  0  0  0  0
    2.3245    1.0479   -0.8657 H   0  0  0  0  0  0  0  0  0  0  0  0
    1.4221    1.0430    0.7040 H   0  0  0  0  0  0  0  0  0  0  0  0
    2.7863    1.1147    2.8866 H   0  0  0  0  0  0  0  0  0  0  0  0
    5.2752    1.5967    3.5074 H   0  0  0  0  0  0  0  0  0  0  0  0
    7.6885    1.7633    2.0633 H   0  0  0  0  0  0  0  0  0  0  0  0
    8.6755    1.6029   -0.1430 H   0  0  0  0  0  0  0  0  0  0  0  0
    7.1648    1.0795   -2.0480 H   0  0  0  0  0  0  0  0  0  0  0  0
    4.7373    0.7534   -1.6990 H   0  0  0  0  0  0  0  0  0  0  0  0
   -0.3333   -0.1424    0.8131 H   0  0  0  0  0  0  0  0  0  0  0  0
   -1.4913   -1.2850   -1.7142 H   0  0  0  0  0  0  0  0  0  0  0  0
   -1.9229   -2.9677   -0.1290 H   0  0  0  0  0  0  0  0  0  0  0  0
   -3.4116   -2.1120   -0.5249 H   0  0  0  0  0  0  0  0  0  0  0  0
   -4.5666   -0.7876    1.2729 H   0  0  0  0  0  0  0  0  0  0  0  0
   -4.8007   -0.5587    3.6996 H   0  0  0  0  0  0  0  0  0  0  0  0
   -3.0745   -1.4329    5.2195 H   0  0  0  0  0  0  0  0  0  0  0  0
   -1.0803   -2.5532    4.3628 H   0  0  0  0  0  0  0  0  0  0  0  0
   -0.8122   -2.7990    1.9180 H   0  0  0  0  0  0  0  0  0  0  0  0
   -4.0777   -0.6600   -1.8511 H   0  0  0  0  0  0  0  0  0  0  0  0
   -4.1596    2.2108   -0.8561 H   0  0  0  0  0  0  0  0  0  0  0  0
   -3.3710    2.3337   -3.0403 H   0  0  0  0  0  0  0  0  0  0  0  0
   -4.6639    1.2705   -3.7541 H   0  0  0  0  0  0  0  0  0  0  0  0
   -5.3651    4.7987   -1.7203 H   0  0  0  0  0  0  0  0  0  0  0  0
   -7.9702    1.8833   -1.6527 H   0  0  0  0  0  0  0  0  0  0  0  0
   -7.0051    2.8639   -0.5231 H   0  0  0  0  0  0  0  0  0  0  0  0
  1  2  1  0
  2  3  2  0
  2  4  1  0
  4  5  1  0
  5  6  1  0
  6  7  1  0
  7  8  2  0
  8  9  1  0
  9 10  1  0
 10 11  2  0
 11 12  1  0
 12 13  2  0
 13 14  1  0
 14 15  2  0
  5 16  1  0
 16 17  2  0
 16 18  1  0
 18 19  1  0
 19 20  1  0
 20 21  1  0
 21 22  2  0
 22 23  1  0
 23 24  2  0
 24 25  1  0
 25 26  2  0
 19 27  1  0
 27 28  2  0
 27 29  1  0
 29 30  1  0
 30 31  1  0
 31 32  1  0
 32 33  1  0
 32 34  2  0
 30 35  1  0
 35 36  1  0
 35 37  2  0
 15  7  1  0
 26 21  1  0
 15 10  1  0
  1 38  1  0
  1 39  1  0
  1 40  1  0
  4 41  1  0
  5 42  1  1
  6 43  1  0
  6 44  1  0
  8 45  1  0
  9 46  1  0
 11 47  1  0
 12 48  1  0
 13 49  1  0
 14 50  1  0
 18 51  1  0
 19 52  1  6
 20 53  1  0
 20 54  1  0
 22 55  1  0
 23 56  1  0
 24 57  1  0
 25 58  1  0
 26 59  1  0
 29 60  1  0
 30 61  1  1
 31 62  1  0
 31 63  1  0
 33 64  1  0
 36 65  1  0
 36 66  1  0
M  END
$$$$
[H]C1=C(C([H])(C([H])([H])[H])C([H])([H])[H])C(=O)N(C#N)C(=O)c2c(-c3c(Br)c([H])c([H])c([H])c3C([H])([H])[H])c(nn2C([H])([H])[H])C(=O)N([H])C(S(=O)(=O)N([H])C([H])([H])C([H])(C([H])([H])[H])C([H])([H])[H])=C1[H]
     RDKit          3D

 68 70  0  0  0  0  0  0  0  0999 V2000
   -0.5341    4.7321   -0.0811 C   0  0  0  0  0  0  0  0  0  0  0  0
    0.2590    3.9012    0.8162 C   0  0  0  0  0  0  0  0  0  0  0  0
    1.6730    3.9768    0.3615 C   0  0  0  0  0  0  0  0  0  0  0  0
   -0.2609    2.4730    1.1624 C   0  0  0  0  0  0  0  0  0  0  0  0
    0.6300    1.5190    1.0094 C   0  0  0  0  0  0  0  0  0  0  0  0
    0.9678    0.1401    1.0970 C   0  0  0  0  0  0  0  0  0  0  0  0
    1.1057   -1.0543    0.6234 C   0  0  0  0  0  0  0  0  0  0  0  0
    0.8861   -1.6733   -0.6456 N   0  0  0  0  0  0  0  0  0  0  0  0
    0.0026   -1.4069   -1.7217 C   0  0  0  0  0  0  0  0  0  0  0  0
    0.2351   -1.9570   -2.8280 O   0  0  0  0  0  0  0  0  0  0  0  0
   -1.1912   -0.4980   -1.6242 C   0  0  0  0  0  0  0  0  0  0  0  0
   -0.9994    0.6586   -2.3797 N   0  0  0  0  0  0  0  0  0  0  0  0
   -1.8770    1.5164   -2.0439 N   0  0  0  0  0  0  0  0  0  0  0  0
   -2.0479    2.8156   -2.7752 C   0  0  0  0  0  0  0  0  0  0  0  0
   -2.6495    0.9643   -1.0678 C   0  0  0  0  0  0  0  0  0  0  0  0
   -2.2655   -0.3459   -0.7982 C   0  0  0  0  0  0  0  0  0  0  0  0
   -3.1027   -1.4854   -0.1529 C   0  0  0  0  0  0  0  0  0  0  0  0
   -4.0060   -2.1194   -1.0767 C   0  0  0  0  0  0  0  0  0  0  0  0
   -3.9264   -1.5718   -2.4758 C   0  0  0  0  0  0  0  0  0  0  0  0
   -4.8576   -3.1152   -0.7575 C   0  0  0  0  0  0  0  0  0  0  0  0
   -4.8690   -3.5597    0.5354 C   0  0  0  0  0  0  0  0  0  0  0  0
   -4.0305   -2.9930    1.4639 C   0  0  0  0  0  0  0  0  0  0  0  0
   -3.1612   -1.9487    1.0610 C   0  0  0  0  0  0  0  0  0  0  0  0
   -2.2013   -1.2788    2.5634 Br  0  0  0  0  0  0  0  0  0  0  0  0
   -3.3730    1.9584   -0.1758 C   0  0  0  0  0  0  0  0  0  0  0  0
   -4.3121    2.5647   -0.6447 O   0  0  0  0  0  0  0  0  0  0  0  0
   -2.9731    2.2189    1.2225 N   0  0  0  0  0  0  0  0  0  0  0  0
   -1.6490    2.4778    1.6801 C   0  0  0  0  0  0  0  0  0  0  0  0
   -1.6202    2.8445    2.9614 O   0  0  0  0  0  0  0  0  0  0  0  0
   -4.0477    2.2229    2.1520 C   0  0  0  0  0  0  0  0  0  0  0  0
   -4.9487    2.2339    2.9024 N   0  0  0  0  0  0  0  0  0  0  0  0
    1.8207   -2.2581    1.8555 S   0  0  0  0  0  0  0  0  0  0  0  0
    1.4266   -3.6256    1.5172 O   0  0  0  0  0  0  0  0  0  0  0  0
    1.3154   -1.9767    3.2098 O   0  0  0  0  0  0  0  0  0  0  0  0
    3.5408   -2.1519    1.7509 N   0  0  0  0  0  0  0  0  0  0  0  0
    4.0210   -2.5086    0.4569 C   0  0  0  0  0  0  0  0  0  0  0  0
    5.5538   -2.3748    0.5083 C   0  0  0  0  0  0  0  0  0  0  0  0
    5.9305   -0.9610    0.8458 C   0  0  0  0  0  0  0  0  0  0  0  0
    6.1377   -2.8440   -0.8055 C   0  0  0  0  0  0  0  0  0  0  0  0
   -0.4133    5.8340    0.1513 H   0  0  0  0  0  0  0  0  0  0  0  0
   -0.1440    4.6630   -1.1271 H   0  0  0  0  0  0  0  0  0  0  0  0
   -1.6226    4.4912   -0.1535 H   0  0  0  0  0  0  0  0  0  0  0  0
    0.1719    4.4684    1.8407 H   0  0  0  0  0  0  0  0  0  0  0  0
    1.9115    5.0683    0.1369 H   0  0  0  0  0  0  0  0  0  0  0  0
    2.4258    3.6641    1.1060 H   0  0  0  0  0  0  0  0  0  0  0  0
    1.7584    3.5069   -0.6379 H   0  0  0  0  0  0  0  0  0  0  0  0
    1.6074    2.0531    0.5682 H   0  0  0  0  0  0  0  0  0  0  0  0
    1.3594    0.0295    2.2586 H   0  0  0  0  0  0  0  0  0  0  0  0
    1.5321   -2.5330   -0.8036 H   0  0  0  0  0  0  0  0  0  0  0  0
   -0.9990    3.1710   -2.9424 H   0  0  0  0  0  0  0  0  0  0  0  0
   -2.5933    3.4995   -2.1364 H   0  0  0  0  0  0  0  0  0  0  0  0
   -2.5131    2.5624   -3.7370 H   0  0  0  0  0  0  0  0  0  0  0  0
   -3.0075   -1.8634   -2.9977 H   0  0  0  0  0  0  0  0  0  0  0  0
   -4.7294   -2.1413   -3.0391 H   0  0  0  0  0  0  0  0  0  0  0  0
   -4.2424   -0.5373   -2.5619 H   0  0  0  0  0  0  0  0  0  0  0  0
   -5.5154   -3.5601   -1.4800 H   0  0  0  0  0  0  0  0  0  0  0  0
   -5.5542   -4.3611    0.7873 H   0  0  0  0  0  0  0  0  0  0  0  0
   -4.0101   -3.3161    2.4884 H   0  0  0  0  0  0  0  0  0  0  0  0
    3.7811   -1.1311    1.9039 H   0  0  0  0  0  0  0  0  0  0  0  0
    3.7472   -3.5384    0.1980 H   0  0  0  0  0  0  0  0  0  0  0  0
    3.7246   -1.7799   -0.3379 H   0  0  0  0  0  0  0  0  0  0  0  0
    5.8662   -3.0588    1.3335 H   0  0  0  0  0  0  0  0  0  0  0  0
    5.1487   -0.2331    0.5398 H   0  0  0  0  0  0  0  0  0  0  0  0
    6.8848   -0.6457    0.3630 H   0  0  0  0  0  0  0  0  0  0  0  0
    6.0426   -0.8472    1.9571 H   0  0  0  0  0  0  0  0  0  0  0  0
    5.4099   -2.5886   -1.5973 H   0  0  0  0  0  0  0  0  0  0  0  0
    7.1256   -2.4192   -1.0190 H   0  0  0  0  0  0  0  0  0  0  0  0
    6.2454   -3.9673   -0.7642 H   0  0  0  0  0  0  0  0  0  0  0  0
  1  2  1  0
  2  3  1  0
  2  4  1  0
  4  5  2  0
  5  6  1  0
  6  7  2  0
  7  8  1  0
  8  9  1  0
  9 10  2  0
  9 11  1  0
 11 12  2  0
 12 13  1  0
 13 14  1  0
 13 15  1  0
 15 16  2  0
 16 17  1  0
 17 18  2  0
 18 19  1  0
 18 20  1  0
 20 21  2  0
 21 22  1  0
 22 23  2  0
 23 24  1  0
 15 25  1  0
 25 26  2  0
 25 27  1  0
 27 28  1  0
 28 29  2  0
 27 30  1  0
 30 31  3  0
  7 32  1  0
 32 33  2  0
 32 34  2  0
 32 35  1  0
 35 36  1  0
 36 37  1  0
 37 38  1  0
 37 39  1  0
 28  4  1  0
 16 11  1  0
 23 17  1  0
  1 40  1  0
  1 41  1  0
  1 42  1  0
  2 43  1  0
  3 44  1  0
  3 45  1  0
  3 46  1  0
  5 47  1  0
  6 48  1  0
  8 49  1  0
 14 50  1  0
 14 51  1  0
 14 52  1  0
 19 53  1  0
 19 54  1  0
 19 55  1  0
 20 56  1  0
 21 57  1  0
 22 58  1  0
 35 59  1  0
 36 60  1  0
 36 61  1  0
 37 62  1  0
 38 63  1  0
 38 64  1  0
 38 65  1  0
 39 66  1  0
 39 67  1  0
 39 68  1  0
M  END
$$$$
[H]c1nc(N([H])c2nc3c(C#N)c([H])nn3c(N([H])C3([H])C([H])([H])C3([H])[H])c2[H])c([H])c(N2C([H])([H])C([H])([H])N(C([H])([H])[H])C([H])([H])C2([H])[H])c1C#N
     RDKit          3D

 53 57  0  0  0  0  0  0  0  0999 V2000
    7.6497    0.0779    1.0869 C   0  0  0  0  0  0  0  0  0  0  0  0
    6.3620   -0.2207    1.7264 N   0  0  0  0  0  0  0  0  0  0  0  0
    5.5167    0.9226    1.6926 C   0  0  0  0  0  0  0  0  0  0  0  0
    4.9507    1.0244    0.2631 C   0  0  0  0  0  0  0  0  0  0  0  0
    4.0700   -0.1112    0.1455 N   0  0  0  0  0  0  0  0  0  0  0  0
    4.5051   -1.3961    0.5727 C   0  0  0  0  0  0  0  0  0  0  0  0
    5.8440   -1.4347    1.2102 C   0  0  0  0  0  0  0  0  0  0  0  0
    2.7747    0.0664   -0.3902 C   0  0  0  0  0  0  0  0  0  0  0  0
    1.6364   -0.2086    0.3752 C   0  0  0  0  0  0  0  0  0  0  0  0
    0.3573   -0.0453   -0.1098 C   0  0  0  0  0  0  0  0  0  0  0  0
   -0.7814   -0.3319    0.6882 N   0  0  0  0  0  0  0  0  0  0  0  0
   -2.1059   -0.1684    0.2021 C   0  0  0  0  0  0  0  0  0  0  0  0
   -3.1769   -0.4574    1.0077 C   0  0  0  0  0  0  0  0  0  0  0  0
   -4.5126   -0.3114    0.5729 C   0  0  0  0  0  0  0  0  0  0  0  0
   -5.5450   -0.6611    1.4356 N   0  0  0  0  0  0  0  0  0  0  0  0
   -6.9232   -0.6009    1.5378 C   0  0  0  0  0  0  0  0  0  0  0  0
   -7.9650   -0.9637    0.5764 C   0  0  0  0  0  0  0  0  0  0  0  0
   -7.8116    0.4737    1.0325 C   0  0  0  0  0  0  0  0  0  0  0  0
   -4.6074    0.1345   -0.6988 N   0  0  0  0  0  0  0  0  0  0  0  0
   -5.6571    0.3729   -1.4430 N   0  0  0  0  0  0  0  0  0  0  0  0
   -5.3518    0.7961   -2.6725 C   0  0  0  0  0  0  0  0  0  0  0  0
   -3.9782    0.8432   -2.7536 C   0  0  0  0  0  0  0  0  0  0  0  0
   -3.1445    1.2303   -3.8544 C   0  0  0  0  0  0  0  0  0  0  0  0
   -2.4739    1.5565   -4.7456 N   0  0  0  0  0  0  0  0  0  0  0  0
   -3.5548    0.4164   -1.4851 C   0  0  0  0  0  0  0  0  0  0  0  0
   -2.2999    0.2708   -1.0502 N   0  0  0  0  0  0  0  0  0  0  0  0
    0.2543    0.4011   -1.3826 N   0  0  0  0  0  0  0  0  0  0  0  0
    1.3242    0.6760   -2.1490 C   0  0  0  0  0  0  0  0  0  0  0  0
    2.6196    0.5189   -1.6817 C   0  0  0  0  0  0  0  0  0  0  0  0
    3.7473    0.8248   -2.5460 C   0  0  0  0  0  0  0  0  0  0  0  0
    4.6341    1.0596   -3.2502 N   0  0  0  0  0  0  0  0  0  0  0  0
    8.5004   -0.2950    1.6956 H   0  0  0  0  0  0  0  0  0  0  0  0
    7.7470    1.1871    0.9239 H   0  0  0  0  0  0  0  0  0  0  0  0
    7.7066   -0.4108    0.0832 H   0  0  0  0  0  0  0  0  0  0  0  0
    6.0974    1.8088    1.9601 H   0  0  0  0  0  0  0  0  0  0  0  0
    4.6511    0.7387    2.3692 H   0  0  0  0  0  0  0  0  0  0  0  0
    5.8034    0.8907   -0.4626 H   0  0  0  0  0  0  0  0  0  0  0  0
    4.4811    1.9895    0.0836 H   0  0  0  0  0  0  0  0  0  0  0  0
    4.5465   -2.0471   -0.3503 H   0  0  0  0  0  0  0  0  0  0  0  0
    3.7174   -1.8844    1.2073 H   0  0  0  0  0  0  0  0  0  0  0  0
    5.7713   -2.1516    2.0833 H   0  0  0  0  0  0  0  0  0  0  0  0
    6.5987   -1.9377    0.5427 H   0  0  0  0  0  0  0  0  0  0  0  0
    1.7292   -0.5656    1.3934 H   0  0  0  0  0  0  0  0  0  0  0  0
   -0.6377   -0.6685    1.6487 H   0  0  0  0  0  0  0  0  0  0  0  0
   -2.9509   -0.8007    1.9954 H   0  0  0  0  0  0  0  0  0  0  0  0
   -5.1056   -1.1797    2.3433 H   0  0  0  0  0  0  0  0  0  0  0  0
   -7.2446   -0.9552    2.6362 H   0  0  0  0  0  0  0  0  0  0  0  0
   -7.8389   -1.2127   -0.4718 H   0  0  0  0  0  0  0  0  0  0  0  0
   -8.9176   -1.4336    0.9980 H   0  0  0  0  0  0  0  0  0  0  0  0
   -8.6318    0.8565    1.7448 H   0  0  0  0  0  0  0  0  0  0  0  0
   -7.5661    1.2225    0.3098 H   0  0  0  0  0  0  0  0  0  0  0  0
   -6.0445    1.0604   -3.4777 H   0  0  0  0  0  0  0  0  0  0  0  0
    1.2307    1.0339   -3.1693 H   0  0  0  0  0  0  0  0  0  0  0  0
  1  2  1  0
  2  3  1  0
  3  4  1  0
  4  5  1  0
  5  6  1  0
  6  7  1  0
  5  8  1  0
  8  9  2  0
  9 10  1  0
 10 11  1  0
 11 12  1  0
 12 13  1  0
 13 14  2  0
 14 15  1  0
 15 16  1  0
 16 17  1  0
 17 18  1  0
 14 19  1  0
 19 20  1  0
 20 21  2  0
 21 22  1  0
 22 23  1  0
 23 24  3  0
 22 25  2  0
 25 26  1  0
 10 27  2  0
 27 28  1  0
 28 29  2  0
 29 30  1  0
 30 31  3  0
  7  2  1  0
 29  8  1  0
 26 12  2  0
 18 16  1  0
 25 19  1  0
  1 32  1  0
  1 33  1  0
  1 34  1  0
  3 35  1  0
  3 36  1  0
  4 37  1  0
  4 38  1  0
  6 39  1  0
  6 40  1  0
  7 41  1  0
  7 42  1  0
  9 43  1  0
 11 44  1  0
 13 45  1  0
 15 46  1  0
 16 47  1  0
 17 48  1  0
 17 49  1  0
 18 50  1  0
 18 51  1  0
 21 52  1  0
 28 53  1  0
M  END
$$$$
[H]c1nc2c(C([H])([H])[H])c(C([H])([H])[H])c(-c3c(C([H])(C([H])([H])[H])C([H])([H])[H])c4c([H])c(C5([H])C([H])([H])C([H])([H])N(C(=O)C([H])([H])N(C([H])([H])[H])C([H])([H])[H])C([H])([H])C5([H])[H])c([H])c([H])c4n3[H])c([H])n2n1
     RDKit          3D

 71 75  0  0  0  0  0  0  0  0999 V2000
   -2.0426    2.9874   -0.1025 C   0  0  0  0  0  0  0  0  0  0  0  0
   -3.0444    2.0484   -0.7801 C   0  0  0  0  0  0  0  0  0  0  0  0
   -2.8330    2.3490   -2.2878 C   0  0  0  0  0  0  0  0  0  0  0  0
   -2.7417    0.6081   -0.5509 C   0  0  0  0  0  0  0  0  0  0  0  0
   -3.6964   -0.4148   -0.4769 C   0  0  0  0  0  0  0  0  0  0  0  0
   -2.9550   -1.5423   -0.3196 N   0  0  0  0  0  0  0  0  0  0  0  0
   -1.6527   -1.2981   -0.2904 C   0  0  0  0  0  0  0  0  0  0  0  0
   -0.5694   -2.1768   -0.1444 C   0  0  0  0  0  0  0  0  0  0  0  0
    0.7039   -1.6500   -0.1477 C   0  0  0  0  0  0  0  0  0  0  0  0
    0.9330   -0.3100   -0.2905 C   0  0  0  0  0  0  0  0  0  0  0  0
   -0.1836    0.5252   -0.4347 C   0  0  0  0  0  0  0  0  0  0  0  0
   -1.4757    0.0583   -0.4358 C   0  0  0  0  0  0  0  0  0  0  0  0
    2.3237    0.2652   -0.2699 C   0  0  0  0  0  0  0  0  0  0  0  0
    2.7111    0.4873    1.1545 C   0  0  0  0  0  0  0  0  0  0  0  0
    4.1235    0.2736    1.5256 C   0  0  0  0  0  0  0  0  0  0  0  0
    5.0660    0.0190    0.4952 N   0  0  0  0  0  0  0  0  0  0  0  0
    4.6518   -0.0054   -0.8924 C   0  0  0  0  0  0  0  0  0  0  0  0
    3.2692   -0.6844   -0.9177 C   0  0  0  0  0  0  0  0  0  0  0  0
    6.4423   -0.2077    0.8430 C   0  0  0  0  0  0  0  0  0  0  0  0
    6.7596   -0.1615    2.0507 O   0  0  0  0  0  0  0  0  0  0  0  0
    7.4128   -0.4857   -0.2612 C   0  0  0  0  0  0  0  0  0  0  0  0
    8.7351   -0.6891    0.2497 N   0  0  0  0  0  0  0  0  0  0  0  0
    9.6097   -0.9645   -0.8966 C   0  0  0  0  0  0  0  0  0  0  0  0
    9.2490    0.4664    0.9609 C   0  0  0  0  0  0  0  0  0  0  0  0
   -5.1445   -0.3305   -0.3852 C   0  0  0  0  0  0  0  0  0  0  0  0
   -5.9090    0.5501   -1.1313 C   0  0  0  0  0  0  0  0  0  0  0  0
   -7.2448    0.7048   -1.0060 N   0  0  0  0  0  0  0  0  0  0  0  0
   -8.0701    1.4917   -1.6487 N   0  0  0  0  0  0  0  0  0  0  0  0
   -9.3213    1.2777   -1.1625 C   0  0  0  0  0  0  0  0  0  0  0  0
   -9.2129    0.3408   -0.2125 N   0  0  0  0  0  0  0  0  0  0  0  0
   -7.9040   -0.0192   -0.1162 C   0  0  0  0  0  0  0  0  0  0  0  0
   -7.1996   -0.9148    0.6594 C   0  0  0  0  0  0  0  0  0  0  0  0
   -7.9625   -1.7186    1.6599 C   0  0  0  0  0  0  0  0  0  0  0  0
   -5.8412   -1.0824    0.5430 C   0  0  0  0  0  0  0  0  0  0  0  0
   -5.1831   -2.0285    1.4605 C   0  0  0  0  0  0  0  0  0  0  0  0
   -2.6110    3.9119    0.2407 H   0  0  0  0  0  0  0  0  0  0  0  0
   -1.2985    3.3918   -0.8012 H   0  0  0  0  0  0  0  0  0  0  0  0
   -1.5441    2.5192    0.7584 H   0  0  0  0  0  0  0  0  0  0  0  0
   -4.0355    2.3161   -0.4371 H   0  0  0  0  0  0  0  0  0  0  0  0
   -3.7844    2.8278   -2.6182 H   0  0  0  0  0  0  0  0  0  0  0  0
   -2.7040    1.4061   -2.8508 H   0  0  0  0  0  0  0  0  0  0  0  0
   -2.0267    3.0772   -2.4397 H   0  0  0  0  0  0  0  0  0  0  0  0
   -3.3706   -2.5021   -0.2545 H   0  0  0  0  0  0  0  0  0  0  0  0
   -0.7720   -3.2215   -0.0393 H   0  0  0  0  0  0  0  0  0  0  0  0
    1.5374   -2.3307   -0.0298 H   0  0  0  0  0  0  0  0  0  0  0  0
    0.0392    1.5502   -0.5676 H   0  0  0  0  0  0  0  0  0  0  0  0
    2.2544    1.2447   -0.7992 H   0  0  0  0  0  0  0  0  0  0  0  0
    2.0675   -0.1739    1.8104 H   0  0  0  0  0  0  0  0  0  0  0  0
    2.3849    1.5399    1.4121 H   0  0  0  0  0  0  0  0  0  0  0  0
    4.4655    1.1625    2.1489 H   0  0  0  0  0  0  0  0  0  0  0  0
    4.2114   -0.5809    2.2704 H   0  0  0  0  0  0  0  0  0  0  0  0
    4.5864    0.9919   -1.3567 H   0  0  0  0  0  0  0  0  0  0  0  0
    5.3305   -0.7000   -1.4303 H   0  0  0  0  0  0  0  0  0  0  0  0
    3.0276   -0.9741   -1.9449 H   0  0  0  0  0  0  0  0  0  0  0  0
    3.3758   -1.5894   -0.2731 H   0  0  0  0  0  0  0  0  0  0  0  0
    7.1294   -1.4285   -0.8024 H   0  0  0  0  0  0  0  0  0  0  0  0
    7.3831    0.3395   -0.9667 H   0  0  0  0  0  0  0  0  0  0  0  0
    9.8821   -2.0303   -0.8671 H   0  0  0  0  0  0  0  0  0  0  0  0
   10.5401   -0.3907   -0.7712 H   0  0  0  0  0  0  0  0  0  0  0  0
    9.0998   -0.6874   -1.8479 H   0  0  0  0  0  0  0  0  0  0  0  0
    9.1766    0.3071    2.0580 H   0  0  0  0  0  0  0  0  0  0  0  0
    8.7998    1.4037    0.6044 H   0  0  0  0  0  0  0  0  0  0  0  0
   10.3548    0.5307    0.7457 H   0  0  0  0  0  0  0  0  0  0  0  0
   -5.4257    1.1395   -1.8906 H   0  0  0  0  0  0  0  0  0  0  0  0
  -10.1883    1.8048   -1.5284 H   0  0  0  0  0  0  0  0  0  0  0  0
   -9.0417   -1.6657    1.4707 H   0  0  0  0  0  0  0  0  0  0  0  0
   -7.5781   -2.7582    1.5889 H   0  0  0  0  0  0  0  0  0  0  0  0
   -7.8197   -1.3000    2.6892 H   0  0  0  0  0  0  0  0  0  0  0  0
   -4.2022   -1.7170    1.8423 H   0  0  0  0  0  0  0  0  0  0  0  0
   -5.8190   -2.1386    2.4089 H   0  0  0  0  0  0  0  0  0  0  0  0
   -5.2280   -3.0445    1.0212 H   0  0  0  0  0  0  0  0  0  0  0  0
  1  2  1  0
  2  3  1  0
  2  4  1  0
  4  5  2  0
  5  6  1  0
  6  7  1  0
  7  8  2  0
  8  9  1  0
  9 10  2  0
 10 11  1  0
 11 12  2  0
 10 13  1  0
 13 14  1  0
 14 15  1  0
 15 16  1  0
 16 17  1  0
 17 18  1  0
 16 19  1  0
 19 20  2  0
 19 21  1  0
 21 22  1  0
 22 23  1  0
 22 24  1  0
  5 25  1  0
 25 26  2  0
 26 27  1  0
 27 28  1  0
 28 29  2  0
 29 30  1  0
 30 31  2  0
 31 32  1  0
 32 33  1  0
 32 34  2  0
 34 35  1  0
 12  4  1  0
 18 13  1  0
 34 25  1  0
 12  7  1  0
 31 27  1  0
  1 36  1  0
  1 37  1  0
  1 38  1  0
  2 39  1  0
  3 40  1  0
  3 41  1  0
  3 42  1  0
  6 43  1  0
  8 44  1  0
  9 45  1  0
 11 46  1  0
 13 47  1  0
 14 48  1  0
 14 49  1  0
 15 50  1  0
 15 51  1  0
 17 52  1  0
 17 53  1  0
 18 54  1  0
 18 55  1  0
 21 56  1  0
 21 57  1  0
 23 58  1  0
 23 59  1  0
 23 60  1  0
 24 61  1  0
 24 62  1  0
 24 63  1  0
 26 64  1  0
 29 65  1  0
 33 66  1  0
 33 67  1  0
 33 68  1  0
 35 69  1  0
 35 70  1  0
 35 71  1  0
M  END
$$$$
[H]c1c([H])c([H])c2c(c1[H])C([H])([H])N(C(=O)c1c([H])c3c(c([H])c1Cl)C([H])([H])N(C(=O)[C@@]([H])(N1C([H])([H])C([H])([H])C([H])([H])C1([H])[H])[C@@]([H])(OC([H])([H])[H])C(=O)N([H])C14C(=O)C([H])([H])C([H])([H])N1C([H])([H])C1([H])C([H])([H])C([H])(C4([H])[H])C1([H])[H])C([H])([H])C3([H])[H])C2([H])[H]
     RDKit          3D

 92 99  0  0  0  0  0  0  0  0999 V2000
   -3.1103    0.6189    3.9247 C   0  0  0  0  0  0  0  0  0  0  0  0
   -2.7794    0.6635    2.5742 O   0  0  0  0  0  0  0  0  0  0  0  0
   -2.7642   -0.6350    1.9940 C   0  0  2  0  0  0  0  0  0  0  0  0
   -1.5658   -0.8135    1.1382 C   0  0  2  0  0  0  0  0  0  0  0  0
   -1.2383   -1.9874    0.5306 N   0  0  0  0  0  0  0  0  0  0  0  0
   -1.9087   -2.7007   -0.4508 C   0  0  0  0  0  0  0  0  0  0  0  0
   -0.7895   -3.5431   -1.1442 C   0  0  0  0  0  0  0  0  0  0  0  0
    0.0318   -3.9240    0.0617 C   0  0  0  0  0  0  0  0  0  0  0  0
   -0.2349   -2.8536    1.1040 C   0  0  0  0  0  0  0  0  0  0  0  0
   -0.3246   -0.1405    1.6793 C   0  0  0  0  0  0  0  0  0  0  0  0
   -0.2106    0.0581    2.9145 O   0  0  0  0  0  0  0  0  0  0  0  0
    0.7241    0.2858    0.8738 N   0  0  0  0  0  0  0  0  0  0  0  0
    1.9086    0.8976    1.4851 C   0  0  0  0  0  0  0  0  0  0  0  0
    3.1535    0.2495    0.9946 C   0  0  0  0  0  0  0  0  0  0  0  0
    4.2975    0.3196    1.7683 C   0  0  0  0  0  0  0  0  0  0  0  0
    5.4668   -0.2563    1.3634 C   0  0  0  0  0  0  0  0  0  0  0  0
    6.9007   -0.1499    2.3678 Cl  0  0  0  0  0  0  0  0  0  0  0  0
    5.4619   -0.9171    0.1409 C   0  0  0  0  0  0  0  0  0  0  0  0
    6.7023   -1.5301   -0.2955 C   0  0  0  0  0  0  0  0  0  0  0  0
    7.6647   -0.8389   -1.0689 N   0  0  0  0  0  0  0  0  0  0  0  0
    8.9372   -1.2914   -1.5846 C   0  0  0  0  0  0  0  0  0  0  0  0
    9.7727   -0.0720   -1.3643 C   0  0  0  0  0  0  0  0  0  0  0  0
   11.1300    0.0901   -1.2046 C   0  0  0  0  0  0  0  0  0  0  0  0
   11.6592    1.3648   -1.0083 C   0  0  0  0  0  0  0  0  0  0  0  0
   10.8122    2.4499   -0.9766 C   0  0  0  0  0  0  0  0  0  0  0  0
    9.4531    2.3090   -1.1343 C   0  0  0  0  0  0  0  0  0  0  0  0
    8.9449    1.0396   -1.3278 C   0  0  0  0  0  0  0  0  0  0  0  0
    7.5624    0.5534   -1.5275 C   0  0  0  0  0  0  0  0  0  0  0  0
    6.9293   -2.7183    0.0256 O   0  0  0  0  0  0  0  0  0  0  0  0
    4.2997   -0.9832   -0.6352 C   0  0  0  0  0  0  0  0  0  0  0  0
    3.1268   -0.3952   -0.2100 C   0  0  0  0  0  0  0  0  0  0  0  0
    1.9517   -0.5170   -1.0915 C   0  0  0  0  0  0  0  0  0  0  0  0
    0.7326    0.2001   -0.5507 C   0  0  0  0  0  0  0  0  0  0  0  0
   -4.0239   -0.6020    1.1385 C   0  0  0  0  0  0  0  0  0  0  0  0
   -4.4978   -1.6035    0.5872 O   0  0  0  0  0  0  0  0  0  0  0  0
   -4.7388    0.6234    0.9248 N   0  0  0  0  0  0  0  0  0  0  0  0
   -5.9375    0.7141    0.1273 C   0  0  0  0  0  0  0  0  0  0  0  0
   -6.4943    2.0168    0.2526 N   0  0  0  0  0  0  0  0  0  0  0  0
   -7.7561    2.1787   -0.4454 C   0  0  0  0  0  0  0  0  0  0  0  0
   -7.5693    2.4833   -1.9043 C   0  0  0  0  0  0  0  0  0  0  0  0
   -7.5477    1.1499   -2.6276 C   0  0  0  0  0  0  0  0  0  0  0  0
   -6.0651    1.1143   -2.3769 C   0  0  0  0  0  0  0  0  0  0  0  0
   -5.6392    0.2619   -1.2529 C   0  0  0  0  0  0  0  0  0  0  0  0
   -6.0761    2.5843   -2.1484 C   0  0  0  0  0  0  0  0  0  0  0  0
   -6.8153    2.0874    1.6659 C   0  0  0  0  0  0  0  0  0  0  0  0
   -7.4255    0.7182    1.9526 C   0  0  0  0  0  0  0  0  0  0  0  0
   -6.9800   -0.1157    0.8059 C   0  0  0  0  0  0  0  0  0  0  0  0
   -7.3455   -1.2056    0.4672 O   0  0  0  0  0  0  0  0  0  0  0  0
   -3.0933    1.6278    4.3780 H   0  0  0  0  0  0  0  0  0  0  0  0
   -2.4678   -0.0523    4.5003 H   0  0  0  0  0  0  0  0  0  0  0  0
   -4.1479    0.1735    4.0498 H   0  0  0  0  0  0  0  0  0  0  0  0
   -2.8914   -1.3485    2.8016 H   0  0  0  0  0  0  0  0  0  0  0  0
   -1.7725   -0.0654    0.2261 H   0  0  0  0  0  0  0  0  0  0  0  0
   -2.6135   -3.4963   -0.1210 H   0  0  0  0  0  0  0  0  0  0  0  0
   -2.3306   -2.0990   -1.2455 H   0  0  0  0  0  0  0  0  0  0  0  0
   -1.2172   -4.4516   -1.5872 H   0  0  0  0  0  0  0  0  0  0  0  0
   -0.1952   -2.9090   -1.7965 H   0  0  0  0  0  0  0  0  0  0  0  0
    1.1116   -4.0366   -0.1510 H   0  0  0  0  0  0  0  0  0  0  0  0
   -0.2937   -4.9353    0.4409 H   0  0  0  0  0  0  0  0  0  0  0  0
   -0.5828   -3.3679    2.0173 H   0  0  0  0  0  0  0  0  0  0  0  0
    0.7048   -2.3072    1.2791 H   0  0  0  0  0  0  0  0  0  0  0  0
    1.9367    1.9864    1.2595 H   0  0  0  0  0  0  0  0  0  0  0  0
    1.8881    0.7871    2.5743 H   0  0  0  0  0  0  0  0  0  0  0  0
    4.2368    0.8512    2.7146 H   0  0  0  0  0  0  0  0  0  0  0  0
    8.8542   -1.4238   -2.6844 H   0  0  0  0  0  0  0  0  0  0  0  0
    9.3328   -2.1827   -1.0866 H   0  0  0  0  0  0  0  0  0  0  0  0
   11.8118   -0.7448   -1.2255 H   0  0  0  0  0  0  0  0  0  0  0  0
   12.7164    1.4882   -0.8841 H   0  0  0  0  0  0  0  0  0  0  0  0
   11.2051    3.4377   -0.8260 H   0  0  0  0  0  0  0  0  0  0  0  0
    8.8353    3.1834   -1.1018 H   0  0  0  0  0  0  0  0  0  0  0  0
    6.8311    1.1231   -0.9482 H   0  0  0  0  0  0  0  0  0  0  0  0
    7.2857    0.5157   -2.6046 H   0  0  0  0  0  0  0  0  0  0  0  0
    4.3716   -1.5168   -1.5790 H   0  0  0  0  0  0  0  0  0  0  0  0
    1.7377   -1.5878   -1.2877 H   0  0  0  0  0  0  0  0  0  0  0  0
    2.1988   -0.0797   -2.0865 H   0  0  0  0  0  0  0  0  0  0  0  0
    0.8061    1.2690   -0.9440 H   0  0  0  0  0  0  0  0  0  0  0  0
   -0.1890   -0.1967   -0.9982 H   0  0  0  0  0  0  0  0  0  0  0  0
   -4.3488    1.4697    1.3743 H   0  0  0  0  0  0  0  0  0  0  0  0
   -8.4043    1.2944   -0.3536 H   0  0  0  0  0  0  0  0  0  0  0  0
   -8.2611    3.0613    0.0087 H   0  0  0  0  0  0  0  0  0  0  0  0
   -8.1973    3.2464   -2.3585 H   0  0  0  0  0  0  0  0  0  0  0  0
   -8.1456    0.3591   -2.1620 H   0  0  0  0  0  0  0  0  0  0  0  0
   -7.8439    1.2928   -3.6861 H   0  0  0  0  0  0  0  0  0  0  0  0
   -5.5185    0.8192   -3.3091 H   0  0  0  0  0  0  0  0  0  0  0  0
   -4.5550    0.0682   -1.3566 H   0  0  0  0  0  0  0  0  0  0  0  0
   -6.1237   -0.7413   -1.3865 H   0  0  0  0  0  0  0  0  0  0  0  0
   -5.9302    3.1180   -3.1334 H   0  0  0  0  0  0  0  0  0  0  0  0
   -5.4787    2.9976   -1.3377 H   0  0  0  0  0  0  0  0  0  0  0  0
   -5.9474    2.2486    2.3090 H   0  0  0  0  0  0  0  0  0  0  0  0
   -7.6337    2.8206    1.8549 H   0  0  0  0  0  0  0  0  0  0  0  0
   -6.9451    0.3055    2.8670 H   0  0  0  0  0  0  0  0  0  0  0  0
   -8.5219    0.7605    2.0446 H   0  0  0  0  0  0  0  0  0  0  0  0
  1  2  1  0
  2  3  1  0
  3  4  1  0
  4  5  1  0
  5  6  1  0
  6  7  1  0
  7  8  1  0
  8  9  1  0
  4 10  1  0
 10 11  2  0
 10 12  1  0
 12 13  1  0
 13 14  1  0
 14 15  2  0
 15 16  1  0
 16 17  1  0
 16 18  2  0
 18 19  1  0
 19 20  1  0
 20 21  1  0
 21 22  1  0
 22 23  2  0
 23 24  1  0
 24 25  2  0
 25 26  1  0
 26 27  2  0
 27 28  1  0
 19 29  2  0
 18 30  1  0
 30 31  2  0
 31 32  1  0
 32 33  1  0
  3 34  1  0
 34 35  2  0
 34 36  1  0
 36 37  1  0
 37 38  1  0
 38 39  1  0
 39 40  1  0
 40 41  1  0
 41 42  1  0
 42 43  1  0
 42 44  1  0
 38 45  1  0
 45 46  1  0
 46 47  1  0
 47 48  2  0
  9  5  1  0
 33 12  1  0
 43 37  1  0
 31 14  1  0
 47 37  1  0
 28 20  1  0
 44 40  1  0
 27 22  1  0
  1 49  1  0
  1 50  1  0
  1 51  1  0
  3 52  1  1
  4 53  1  6
  6 54  1  0
  6 55  1  0
  7 56  1  0
  7 57  1  0
  8 58  1  0
  8 59  1  0
  9 60  1  0
  9 61  1  0
 13 62  1  0
 13 63  1  0
 15 64  1  0
 21 65  1  0
 21 66  1  0
 23 67  1  0
 24 68  1  0
 25 69  1  0
 26 70  1  0
 28 71  1  0
 28 72  1  0
 30 73  1  0
 32 74  1  0
 32 75  1  0
 33 76  1  0
 33 77  1  0
 36 78  1  0
 39 79  1  0
 39 80  1  0
 40 81  1  0
 41 82  1  0
 41 83  1  0
 42 84  1  0
 43 85  1  0
 43 86  1  0
 44 87  1  0
 44 88  1  0
 45 89  1  0
 45 90  1  0
 46 91  1  0
 46 92  1  0
M  END
$$$$
[H]c1nn2c(Cl)c([H])c([H])c([H])c2c1N1c2c([H])c(Cl)c([H])c([H])c2OC([H])([H])C([H])([H])C([H])(C([H])([H])[H])C1([H])[H]
     RDKit          3D

 41 44  0  0  0  0  0  0  0  0999 V2000
   -2.3239   -3.0904   -0.5857 C   0  0  0  0  0  0  0  0  0  0  0  0
   -1.7182   -2.0309    0.3524 C   0  0  0  0  0  0  0  0  0  0  0  0
   -2.5899   -0.9969    0.5850 C   0  0  0  0  0  0  0  0  0  0  0  0
   -3.7205   -0.2316    0.9328 C   0  0  0  0  0  0  0  0  0  0  0  0
   -3.2975    1.1373    0.6191 O   0  0  0  0  0  0  0  0  0  0  0  0
   -2.0724    1.7222    0.2218 C   0  0  0  0  0  0  0  0  0  0  0  0
   -2.3558    3.0816    0.1051 C   0  0  0  0  0  0  0  0  0  0  0  0
   -1.3603    3.9511   -0.2719 C   0  0  0  0  0  0  0  0  0  0  0  0
   -0.0857    3.5051   -0.5375 C   0  0  0  0  0  0  0  0  0  0  0  0
    1.2046    4.5809   -1.0181 Cl  0  0  0  0  0  0  0  0  0  0  0  0
    0.2078    2.1428   -0.4234 C   0  0  0  0  0  0  0  0  0  0  0  0
   -0.7635    1.2966   -0.0555 C   0  0  0  0  0  0  0  0  0  0  0  0
   -0.1956   -0.0330   -0.0149 N   0  0  0  0  0  0  0  0  0  0  0  0
   -0.4961   -1.4018   -0.3019 C   0  0  0  0  0  0  0  0  0  0  0  0
    1.1322    0.0737    0.4855 C   0  0  0  0  0  0  0  0  0  0  0  0
    1.4427    0.6389    1.6914 C   0  0  0  0  0  0  0  0  0  0  0  0
    2.7843    0.5387    1.8499 N   0  0  0  0  0  0  0  0  0  0  0  0
    3.3318   -0.0682    0.7896 N   0  0  0  0  0  0  0  0  0  0  0  0
    4.5889   -0.3761    0.5129 C   0  0  0  0  0  0  0  0  0  0  0  0
    5.8897    0.0173    1.6412 Cl  0  0  0  0  0  0  0  0  0  0  0  0
    4.9121   -1.0094   -0.6596 C   0  0  0  0  0  0  0  0  0  0  0  0
    3.9223   -1.3312   -1.5628 C   0  0  0  0  0  0  0  0  0  0  0  0
    2.6148   -0.9850   -1.2233 C   0  0  0  0  0  0  0  0  0  0  0  0
    2.3194   -0.3531   -0.0464 C   0  0  0  0  0  0  0  0  0  0  0  0
   -2.9472   -3.7881   -0.0325 H   0  0  0  0  0  0  0  0  0  0  0  0
   -3.0035   -2.5047   -1.2694 H   0  0  0  0  0  0  0  0  0  0  0  0
   -1.5622   -3.5375   -1.2357 H   0  0  0  0  0  0  0  0  0  0  0  0
   -1.4153   -2.6513    1.2502 H   0  0  0  0  0  0  0  0  0  0  0  0
   -1.9026   -0.4737    1.3420 H   0  0  0  0  0  0  0  0  0  0  0  0
   -2.5522   -0.5810   -0.4887 H   0  0  0  0  0  0  0  0  0  0  0  0
   -4.0379   -0.2025    1.9950 H   0  0  0  0  0  0  0  0  0  0  0  0
   -4.6423   -0.3604    0.3296 H   0  0  0  0  0  0  0  0  0  0  0  0
   -3.3377    3.4304    0.3089 H   0  0  0  0  0  0  0  0  0  0  0  0
   -1.6060    5.0230   -0.3580 H   0  0  0  0  0  0  0  0  0  0  0  0
    1.1765    1.7642   -0.6258 H   0  0  0  0  0  0  0  0  0  0  0  0
    0.3490   -2.0497   -0.0107 H   0  0  0  0  0  0  0  0  0  0  0  0
   -0.6195   -1.6148   -1.4079 H   0  0  0  0  0  0  0  0  0  0  0  0
    0.7736    1.0863    2.4021 H   0  0  0  0  0  0  0  0  0  0  0  0
    5.9514   -1.2634   -0.8875 H   0  0  0  0  0  0  0  0  0  0  0  0
    4.1652   -1.8272   -2.4838 H   0  0  0  0  0  0  0  0  0  0  0  0
    1.8395   -1.2284   -1.9136 H   0  0  0  0  0  0  0  0  0  0  0  0
  1  2  1  0
  2  3  1  0
  3  4  1  0
  4  5  1  0
  5  6  1  0
  6  7  2  0
  7  8  1  0
  8  9  2  0
  9 10  1  0
  9 11  1  0
 11 12  2  0
 12 13  1  0
 13 14  1  0
 13 15  1  0
 15 16  1  0
 16 17  2  0
 17 18  1  0
 18 19  1  0
 19 20  1  0
 19 21  2  0
 21 22  1  0
 22 23  2  0
 23 24  1  0
 14  2  1  0
 24 15  2  0
 12  6  1  0
 24 18  1  0
  1 25  1  0
  1 26  1  0
  1 27  1  0
  2 28  1  0
  3 29  1  0
  3 30  1  0
  4 31  1  0
  4 32  1  0
  7 33  1  0
  8 34  1  0
 11 35  1  0
 14 36  1  0
 14 37  1  0
 16 38  1  0
 21 39  1  0
 22 40  1  0
 23 41  1  0
M  END
$$$$
[H]c1nc([H])c2c([H])c(Cl)c([H])c([H])c2c1-c1c([H])c([H])c(OC([H])([H])C([H])([H])N(N([H])[H])C([H])([H])[H])c(C(F)(F)F)c1[H]
     RDKit          3D

 44 46  0  0  0  0  0  0  0  0999 V2000
   -5.8873    0.4579   -0.0375 C   0  0  0  0  0  0  0  0  0  0  0  0
   -4.6766    0.5737   -0.7794 N   0  0  0  0  0  0  0  0  0  0  0  0
   -4.6783    1.5526   -1.7492 N   0  0  0  0  0  0  0  0  0  0  0  0
   -4.1109   -0.6832   -1.1907 C   0  0  0  0  0  0  0  0  0  0  0  0
   -3.5907   -1.5150   -0.0734 C   0  0  0  0  0  0  0  0  0  0  0  0
   -2.5996   -0.9984    0.7094 O   0  0  0  0  0  0  0  0  0  0  0  0
   -1.3289   -0.5875    0.5081 C   0  0  0  0  0  0  0  0  0  0  0  0
   -0.6076   -0.5876   -0.6627 C   0  0  0  0  0  0  0  0  0  0  0  0
    0.6947   -0.1467   -0.7743 C   0  0  0  0  0  0  0  0  0  0  0  0
    1.3534    0.3300    0.3227 C   0  0  0  0  0  0  0  0  0  0  0  0
    0.6710    0.3495    1.5214 C   0  0  0  0  0  0  0  0  0  0  0  0
   -0.6288   -0.0928    1.6210 C   0  0  0  0  0  0  0  0  0  0  0  0
   -1.3627   -0.0684    2.9240 C   0  0  0  0  0  0  0  0  0  0  0  0
   -2.4841    0.7349    2.7854 F   0  0  0  0  0  0  0  0  0  0  0  0
   -1.7201   -1.3558    3.3061 F   0  0  0  0  0  0  0  0  0  0  0  0
   -0.5687    0.4409    3.9089 F   0  0  0  0  0  0  0  0  0  0  0  0
    2.7184    0.8229    0.3623 C   0  0  0  0  0  0  0  0  0  0  0  0
    2.9581    2.1320    0.8274 C   0  0  0  0  0  0  0  0  0  0  0  0
    4.1851    2.6672    0.8614 N   0  0  0  0  0  0  0  0  0  0  0  0
    5.2555    1.9843    0.4536 C   0  0  0  0  0  0  0  0  0  0  0  0
    5.0993    0.7058   -0.0103 C   0  0  0  0  0  0  0  0  0  0  0  0
    6.1762   -0.0578   -0.4382 C   0  0  0  0  0  0  0  0  0  0  0  0
    6.0398   -1.3492   -0.8980 C   0  0  0  0  0  0  0  0  0  0  0  0
    7.4857   -2.1934   -1.4057 Cl  0  0  0  0  0  0  0  0  0  0  0  0
    4.7928   -1.8907   -0.9302 C   0  0  0  0  0  0  0  0  0  0  0  0
    3.6794   -1.1601   -0.5100 C   0  0  0  0  0  0  0  0  0  0  0  0
    3.8237    0.1262   -0.0542 C   0  0  0  0  0  0  0  0  0  0  0  0
   -6.4584    1.4042   -0.1408 H   0  0  0  0  0  0  0  0  0  0  0  0
   -5.7007    0.3534    1.0702 H   0  0  0  0  0  0  0  0  0  0  0  0
   -6.5240   -0.3652   -0.4144 H   0  0  0  0  0  0  0  0  0  0  0  0
   -5.6117    1.5497   -2.2266 H   0  0  0  0  0  0  0  0  0  0  0  0
   -4.6391    2.4845   -1.2464 H   0  0  0  0  0  0  0  0  0  0  0  0
   -3.3580   -0.6082   -1.9847 H   0  0  0  0  0  0  0  0  0  0  0  0
   -4.9699   -1.2372   -1.6885 H   0  0  0  0  0  0  0  0  0  0  0  0
   -3.1804   -2.4717   -0.5337 H   0  0  0  0  0  0  0  0  0  0  0  0
   -4.3977   -1.9031    0.5961 H   0  0  0  0  0  0  0  0  0  0  0  0
   -1.1185   -0.9753   -1.5461 H   0  0  0  0  0  0  0  0  0  0  0  0
    1.2336   -0.1583   -1.7120 H   0  0  0  0  0  0  0  0  0  0  0  0
    1.1464    0.7215    2.4408 H   0  0  0  0  0  0  0  0  0  0  0  0
    2.1157    2.7097    1.1625 H   0  0  0  0  0  0  0  0  0  0  0  0
    6.2322    2.4179    0.4829 H   0  0  0  0  0  0  0  0  0  0  0  0
    7.1494    0.3918   -0.4028 H   0  0  0  0  0  0  0  0  0  0  0  0
    4.6704   -2.8890   -1.2823 H   0  0  0  0  0  0  0  0  0  0  0  0
    2.7217   -1.6157   -0.5351 H   0  0  0  0  0  0  0  0  0  0  0  0
  1  2  1  0
  2  3  1  0
  2  4  1  0
  4  5  1  0
  5  6  1  0
  6  7  1  0
  7  8  2  0
  8  9  1  0
  9 10  2  0
 10 11  1  0
 11 12  2  0
 12 13  1  0
 13 14  1  0
 13 15  1  0
 13 16  1  0
 10 17  1  0
 17 18  2  0
 18 19  1  0
 19 20  2  0
 20 21  1  0
 21 22  2  0
 22 23  1  0
 23 24  1  0
 23 25  2  0
 25 26  1  0
 26 27  2  0
 12  7  1  0
 27 17  1  0
 27 21  1  0
  1 28  1  0
  1 29  1  0
  1 30  1  0
  3 31  1  0
  3 32  1  0
  4 33  1  0
  4 34  1  0
  5 35  1  0
  5 36  1  0
  8 37  1  0
  9 38  1  0
 11 39  1  0
 18 40  1  0
 20 41  1  0
 22 42  1  0
 25 43  1  0
 26 44  1  0
M  END
$$$$
[H]c1c([H])c([N+](=O)[O-])c([H])c([H])c1-c1nc2c([H])c([H])c([H])c([H])c2c(=O)n1C([H])([H])c1c([H])c([H])c(N2C([H])([H])C([H])([H])OC([H])([H])C2([H])[H])c([H])c1[H]
     RDKit          3D

 55 59  0  0  0  0  0  0  0  0999 V2000
   -6.5115   -4.8174    1.3701 O   0  0  0  0  0  0  0  0  0  0  0  0
   -5.1778   -4.8021    1.0561 N   0  0  0  0  0  0  0  0  0  0  0  0
   -4.5717   -5.8838    1.0167 O   0  0  0  0  0  0  0  0  0  0  0  0
   -4.4994   -3.5771    0.7799 C   0  0  0  0  0  0  0  0  0  0  0  0
   -3.1677   -3.5646    0.4690 C   0  0  0  0  0  0  0  0  0  0  0  0
   -2.5350   -2.3384    0.2032 C   0  0  0  0  0  0  0  0  0  0  0  0
   -3.1846   -1.1568    0.2376 C   0  0  0  0  0  0  0  0  0  0  0  0
   -4.5662   -1.2225    0.5668 C   0  0  0  0  0  0  0  0  0  0  0  0
   -5.2239   -2.3887    0.8335 C   0  0  0  0  0  0  0  0  0  0  0  0
   -2.7183    0.1712   -0.1142 C   0  0  0  0  0  0  0  0  0  0  0  0
   -3.4071    1.2304    0.4627 N   0  0  0  0  0  0  0  0  0  0  0  0
   -3.2145    2.5048    0.1826 C   0  0  0  0  0  0  0  0  0  0  0  0
   -3.9288    3.5302    0.7920 C   0  0  0  0  0  0  0  0  0  0  0  0
   -3.6954    4.8495    0.4734 C   0  0  0  0  0  0  0  0  0  0  0  0
   -2.7481    5.2205   -0.4599 C   0  0  0  0  0  0  0  0  0  0  0  0
   -2.0477    4.1968   -1.0560 C   0  0  0  0  0  0  0  0  0  0  0  0
   -2.2691    2.8740   -0.7484 C   0  0  0  0  0  0  0  0  0  0  0  0
   -1.5810    1.8445   -1.3264 C   0  0  0  0  0  0  0  0  0  0  0  0
   -0.7099    2.1557   -2.1822 O   0  0  0  0  0  0  0  0  0  0  0  0
   -1.8129    0.5158   -1.0027 N   0  0  0  0  0  0  0  0  0  0  0  0
   -0.9368   -0.3999   -1.6732 C   0  0  0  0  0  0  0  0  0  0  0  0
    0.4603   -0.3956   -1.1496 C   0  0  0  0  0  0  0  0  0  0  0  0
    1.5086   -0.2815   -2.0435 C   0  0  0  0  0  0  0  0  0  0  0  0
    2.7895   -0.2255   -1.5857 C   0  0  0  0  0  0  0  0  0  0  0  0
    3.0660   -0.2815   -0.2239 C   0  0  0  0  0  0  0  0  0  0  0  0
    2.0498   -0.3948    0.6942 C   0  0  0  0  0  0  0  0  0  0  0  0
    0.7585   -0.4484    0.1806 C   0  0  0  0  0  0  0  0  0  0  0  0
    4.4202   -0.2167    0.2307 N   0  0  0  0  0  0  0  0  0  0  0  0
    4.8224   -0.3988    1.5929 C   0  0  0  0  0  0  0  0  0  0  0  0
    6.1059   -1.1875    1.6943 C   0  0  0  0  0  0  0  0  0  0  0  0
    7.0593   -0.8623    0.7649 O   0  0  0  0  0  0  0  0  0  0  0  0
    6.7535    0.2432    0.0008 C   0  0  0  0  0  0  0  0  0  0  0  0
    5.4703    0.0619   -0.7561 C   0  0  0  0  0  0  0  0  0  0  0  0
   -2.6149   -4.4883    0.4300 H   0  0  0  0  0  0  0  0  0  0  0  0
   -1.4884   -2.3691    0.0094 H   0  0  0  0  0  0  0  0  0  0  0  0
   -5.1459   -0.3190    0.6140 H   0  0  0  0  0  0  0  0  0  0  0  0
   -6.2757   -2.4211    1.0801 H   0  0  0  0  0  0  0  0  0  0  0  0
   -4.6775    3.2519    1.5275 H   0  0  0  0  0  0  0  0  0  0  0  0
   -4.2564    5.6629    0.9515 H   0  0  0  0  0  0  0  0  0  0  0  0
   -2.5958    6.2721   -0.6817 H   0  0  0  0  0  0  0  0  0  0  0  0
   -1.3008    4.4653   -1.7903 H   0  0  0  0  0  0  0  0  0  0  0  0
   -0.8379    0.0339   -2.7571 H   0  0  0  0  0  0  0  0  0  0  0  0
   -1.2603   -1.3968   -1.8696 H   0  0  0  0  0  0  0  0  0  0  0  0
    1.3031   -0.2401   -3.1154 H   0  0  0  0  0  0  0  0  0  0  0  0
    3.6500   -0.1351   -2.2696 H   0  0  0  0  0  0  0  0  0  0  0  0
    2.2262   -0.4377    1.7680 H   0  0  0  0  0  0  0  0  0  0  0  0
   -0.0359   -0.5397    0.9446 H   0  0  0  0  0  0  0  0  0  0  0  0
    5.0043    0.5789    2.1181 H   0  0  0  0  0  0  0  0  0  0  0  0
    4.0776   -0.9895    2.1931 H   0  0  0  0  0  0  0  0  0  0  0  0
    5.8813   -2.2746    1.6267 H   0  0  0  0  0  0  0  0  0  0  0  0
    6.4618   -1.0096    2.7534 H   0  0  0  0  0  0  0  0  0  0  0  0
    6.7416    1.1758    0.6243 H   0  0  0  0  0  0  0  0  0  0  0  0
    7.5705    0.3853   -0.7389 H   0  0  0  0  0  0  0  0  0  0  0  0
    5.5608   -0.7902   -1.4310 H   0  0  0  0  0  0  0  0  0  0  0  0
    5.2556    1.0302   -1.2674 H   0  0  0  0  0  0  0  0  0  0  0  0
  1  2  1  0
  2  3  2  0
  2  4  1  0
  4  5  2  0
  5  6  1  0
  6  7  2  0
  7  8  1  0
  8  9  2  0
  7 10  1  0
 10 11  2  0
 11 12  1  0
 12 13  2  0
 13 14  1  0
 14 15  2  0
 15 16  1  0
 16 17  2  0
 17 18  1  0
 18 19  2  0
 18 20  1  0
 20 21  1  0
 21 22  1  0
 22 23  2  0
 23 24  1  0
 24 25  2  0
 25 26  1  0
 26 27  2  0
 25 28  1  0
 28 29  1  0
 29 30  1  0
 30 31  1  0
 31 32  1  0
 32 33  1  0
  9  4  1  0
 20 10  1  0
 27 22  1  0
 33 28  1  0
 17 12  1  0
  5 34  1  0
  6 35  1  0
  8 36  1  0
  9 37  1  0
 13 38  1  0
 14 39  1  0
 15 40  1  0
 16 41  1  0
 21 42  1  0
 21 43  1  0
 23 44  1  0
 24 45  1  0
 26 46  1  0
 27 47  1  0
 29 48  1  0
 29 49  1  0
 30 50  1  0
 30 51  1  0
 32 52  1  0
 32 53  1  0
 33 54  1  0
 33 55  1  0
M  CHG  2   1  -1   2   1
M  END
$$$$
[H]c1c([H])c(OC([H])([H])C([H])([H])OC([H])([H])C([H])([H])[H])c([H])c(C(=O)c2c([H])c([H])c(C(=O)N([H])[C@]3([H])C4([H])[C]C([H])([H])C([H])([H])[C@@]([H])(C([H])(N([H])C(=O)C(F)(F)F)C4([H])[H])C3([H])[H])c([H])c2[H])c1[H]
     RDKit          3D

 70 73  0  0  0  0  0  0  0  0999 V2000
    8.7655   -3.0567   -1.4475 C   0  0  0  0  0  0  0  0  0  0  0  0
    7.3100   -2.9128   -1.8317 C   0  0  0  0  0  0  0  0  0  0  0  0
    6.7982   -1.7524   -1.2355 O   0  0  0  0  0  0  0  0  0  0  0  0
    5.4445   -1.6032   -1.5863 C   0  0  0  0  0  0  0  0  0  0  0  0
    4.9786   -0.3240   -0.8837 C   0  0  0  0  0  0  0  0  0  0  0  0
    5.7846    0.7264   -1.3711 O   0  0  0  0  0  0  0  0  0  0  0  0
    5.5575    2.0187   -0.8722 C   0  0  0  0  0  0  0  0  0  0  0  0
    6.3278    3.0861   -1.3206 C   0  0  0  0  0  0  0  0  0  0  0  0
    6.0779    4.3290   -0.8106 C   0  0  0  0  0  0  0  0  0  0  0  0
    5.1028    4.5337    0.1132 C   0  0  0  0  0  0  0  0  0  0  0  0
    4.3413    3.4743    0.5559 C   0  0  0  0  0  0  0  0  0  0  0  0
    4.5688    2.2187    0.0630 C   0  0  0  0  0  0  0  0  0  0  0  0
    3.3262    3.7443    1.5597 C   0  0  0  0  0  0  0  0  0  0  0  0
    3.4737    4.7054    2.3876 O   0  0  0  0  0  0  0  0  0  0  0  0
    2.1060    2.9571    1.6851 C   0  0  0  0  0  0  0  0  0  0  0  0
    1.4820    2.8343    2.9356 C   0  0  0  0  0  0  0  0  0  0  0  0
    0.3248    2.1149    3.0781 C   0  0  0  0  0  0  0  0  0  0  0  0
   -0.2880    1.4770    2.0148 C   0  0  0  0  0  0  0  0  0  0  0  0
    0.3335    1.6033    0.7869 C   0  0  0  0  0  0  0  0  0  0  0  0
    1.5041    2.3266    0.6233 C   0  0  0  0  0  0  0  0  0  0  0  0
   -1.5193    0.7245    2.2114 C   0  0  0  0  0  0  0  0  0  0  0  0
   -1.8897    0.5235    3.4029 O   0  0  0  0  0  0  0  0  0  0  0  0
   -2.2965    0.2243    1.1415 N   0  0  0  0  0  0  0  0  0  0  0  0
   -3.5025   -0.5115    1.3423 C   0  0  1  0  0  0  0  0  0  0  0  0
   -4.7154    0.2866    0.9212 C   0  0  0  0  0  0  0  0  0  0  0  0
   -5.3036   -0.2548   -0.3388 C   0  0  1  0  0  0  0  0  0  0  0  0
   -4.3717   -0.0300   -1.4688 C   0  0  0  0  0  0  0  0  0  0  0  0
   -3.3407   -1.0737   -1.6776 C   0  0  0  0  0  0  0  0  0  0  0  0
   -3.1246   -2.0662   -0.6299 C   0  0  0  0  0  2  0  0  0  0  0  0
   -3.5786   -1.8581    0.7366 C   0  0  0  0  0  0  0  0  0  0  0  0
   -5.0156   -2.3480    0.8752 C   0  0  0  0  0  0  0  0  0  0  0  0
   -5.7945   -1.6768   -0.2315 C   0  0  0  0  0  0  0  0  0  0  0  0
   -7.2097   -1.7657   -0.0522 N   0  0  0  0  0  0  0  0  0  0  0  0
   -8.0722   -2.3806   -1.0023 C   0  0  0  0  0  0  0  0  0  0  0  0
   -7.5753   -2.8789   -2.0649 O   0  0  0  0  0  0  0  0  0  0  0  0
   -9.5345   -2.4694   -0.8150 C   0  0  0  0  0  0  0  0  0  0  0  0
  -10.1079   -1.2113   -0.6941 F   0  0  0  0  0  0  0  0  0  0  0  0
   -9.8790   -3.2583    0.2816 F   0  0  0  0  0  0  0  0  0  0  0  0
  -10.1011   -3.0721   -1.9178 F   0  0  0  0  0  0  0  0  0  0  0  0
    9.2669   -2.0755   -1.5538 H   0  0  0  0  0  0  0  0  0  0  0  0
    9.3036   -3.7584   -2.1141 H   0  0  0  0  0  0  0  0  0  0  0  0
    8.8780   -3.4518   -0.4138 H   0  0  0  0  0  0  0  0  0  0  0  0
    6.6979   -3.7600   -1.4169 H   0  0  0  0  0  0  0  0  0  0  0  0
    7.1738   -2.9296   -2.9282 H   0  0  0  0  0  0  0  0  0  0  0  0
    4.8297   -2.4325   -1.1604 H   0  0  0  0  0  0  0  0  0  0  0  0
    5.3003   -1.4637   -2.6704 H   0  0  0  0  0  0  0  0  0  0  0  0
    3.8962   -0.1726   -1.1287 H   0  0  0  0  0  0  0  0  0  0  0  0
    5.1174   -0.4427    0.2262 H   0  0  0  0  0  0  0  0  0  0  0  0
    7.1012    2.8976   -2.0589 H   0  0  0  0  0  0  0  0  0  0  0  0
    6.6679    5.1815   -1.1488 H   0  0  0  0  0  0  0  0  0  0  0  0
    4.9155    5.5436    0.5150 H   0  0  0  0  0  0  0  0  0  0  0  0
    3.9748    1.3497    0.3997 H   0  0  0  0  0  0  0  0  0  0  0  0
    1.9703    3.3391    3.7684 H   0  0  0  0  0  0  0  0  0  0  0  0
   -0.1428    2.0315    4.0509 H   0  0  0  0  0  0  0  0  0  0  0  0
   -0.1098    1.1202   -0.0736 H   0  0  0  0  0  0  0  0  0  0  0  0
    1.9663    2.4085   -0.3708 H   0  0  0  0  0  0  0  0  0  0  0  0
   -1.9931    0.3908    0.1550 H   0  0  0  0  0  0  0  0  0  0  0  0
   -3.6268   -0.6386    2.4610 H   0  0  0  0  0  0  0  0  0  0  0  0
   -4.3642    1.3219    0.6891 H   0  0  0  0  0  0  0  0  0  0  0  0
   -5.4594    0.4111    1.7343 H   0  0  0  0  0  0  0  0  0  0  0  0
   -6.2326    0.3606   -0.5333 H   0  0  0  0  0  0  0  0  0  0  0  0
   -3.8502    0.9519   -1.2917 H   0  0  0  0  0  0  0  0  0  0  0  0
   -4.9917    0.1631   -2.3944 H   0  0  0  0  0  0  0  0  0  0  0  0
   -3.6497   -1.6297   -2.6169 H   0  0  0  0  0  0  0  0  0  0  0  0
   -2.3599   -0.6054   -1.9924 H   0  0  0  0  0  0  0  0  0  0  0  0
   -2.9991   -2.5526    1.4267 H   0  0  0  0  0  0  0  0  0  0  0  0
   -5.0674   -3.4556    0.8153 H   0  0  0  0  0  0  0  0  0  0  0  0
   -5.4499   -1.9663    1.8426 H   0  0  0  0  0  0  0  0  0  0  0  0
   -5.5109   -2.1738   -1.1958 H   0  0  0  0  0  0  0  0  0  0  0  0
   -7.6394   -1.3666    0.8060 H   0  0  0  0  0  0  0  0  0  0  0  0
  1  2  1  0
  2  3  1  0
  3  4  1  0
  4  5  1  0
  5  6  1  0
  6  7  1  0
  7  8  2  0
  8  9  1  0
  9 10  2  0
 10 11  1  0
 11 12  2  0
 11 13  1  0
 13 14  2  0
 13 15  1  0
 15 16  2  0
 16 17  1  0
 17 18  2  0
 18 19  1  0
 19 20  2  0
 18 21  1  0
 21 22  2  0
 21 23  1  0
 23 24  1  0
 24 25  1  0
 25 26  1  0
 26 27  1  0
 27 28  1  0
 28 29  1  0
 29 30  1  0
 30 31  1  0
 31 32  1  0
 32 33  1  0
 33 34  1  0
 34 35  2  0
 34 36  1  0
 36 37  1  0
 36 38  1  0
 36 39  1  0
 12  7  1  0
 20 15  1  0
 30 24  1  0
 32 26  1  0
  1 40  1  0
  1 41  1  0
  1 42  1  0
  2 43  1  0
  2 44  1  0
  4 45  1  0
  4 46  1  0
  5 47  1  0
  5 48  1  0
  8 49  1  0
  9 50  1  0
 10 51  1  0
 12 52  1  0
 16 53  1  0
 17 54  1  0
 19 55  1  0
 20 56  1  0
 23 57  1  0
 24 58  1  1
 25 59  1  0
 25 60  1  0
 26 61  1  6
 27 62  1  0
 27 63  1  0
 28 64  1  0
 28 65  1  0
 30 66  1  0
 31 67  1  0
 31 68  1  0
 32 69  1  0
 33 70  1  0
M  RAD  1  29   3
M  END
$$$$
[H]OC([H])([H])[C@@]1(O[H])C([H])([H])[C@]2([H])O[C@]1(C([H])([H])[H])n1c3c([H])c([H])c([H])c([H])c3c3c4c(c5c6c([H])c([H])c([H])c([H])c6n2c5c31)C(=O)N([H])C4([H])[H]
     RDKit          2D

 54 61  0  0  0  0  0  0  0  0999 V2000
    0.8578    2.6401    0.0000 C   0  0  0  0  0  0  0  0  0  0  0  0
    0.3943    1.2135    0.0000 C   0  0  0  0  0  0  0  0  0  0  0  0
    1.2760    0.0000    0.0000 O   0  0  0  0  0  0  0  0  0  0  0  0
    0.3943   -1.2135    0.0000 C   0  0  0  0  0  0  0  0  0  0  0  0
   -1.0323   -0.7500    0.0000 C   0  0  0  0  0  0  0  0  0  0  0  0
   -1.0323    0.7500    0.0000 C   0  0  0  0  0  0  0  0  0  0  0  0
   -1.3442    2.2172    0.0000 O   0  0  0  0  0  0  0  0  0  0  0  0
   -2.5241    0.5932    0.0000 C   0  0  0  0  0  0  0  0  0  0  0  0
   -4.0159    0.4364    0.0000 O   0  0  0  0  0  0  0  0  0  0  0  0
    1.8567   -1.5473    0.0000 N   0  0  0  0  0  0  0  0  0  0  0  0
    2.3838   -2.9517    0.0000 C   0  0  0  0  0  0  0  0  0  0  0  0
    1.6928   -4.2830    0.0000 C   0  0  0  0  0  0  0  0  0  0  0  0
    2.5003   -5.5471    0.0000 C   0  0  0  0  0  0  0  0  0  0  0  0
    3.9988   -5.4798    0.0000 C   0  0  0  0  0  0  0  0  0  0  0  0
    4.6898   -4.1484    0.0000 C   0  0  0  0  0  0  0  0  0  0  0  0
    3.8822   -2.8844    0.0000 C   0  0  0  0  0  0  0  0  0  0  0  0
    4.2813   -1.4384    0.0000 C   0  0  0  0  0  0  0  0  0  0  0  0
    5.5803   -0.5357    0.0000 C   0  0  0  0  0  0  0  0  0  0  0  0
    7.0069   -0.9993    0.0000 C   0  0  0  0  0  0  0  0  0  0  0  0
    7.4704   -2.4258    0.0000 O   0  0  0  0  0  0  0  0  0  0  0  0
    7.8886    0.2143    0.0000 N   0  0  0  0  0  0  0  0  0  0  0  0
    7.0069    1.4278    0.0000 C   0  0  0  0  0  0  0  0  0  0  0  0
    5.5803    0.9643    0.0000 C   0  0  0  0  0  0  0  0  0  0  0  0
    4.2813    1.7143    0.0000 C   0  0  0  0  0  0  0  0  0  0  0  0
    3.8822    3.1602    0.0000 C   0  0  0  0  0  0  0  0  0  0  0  0
    4.6898    4.4243    0.0000 C   0  0  0  0  0  0  0  0  0  0  0  0
    3.9988    5.7557    0.0000 C   0  0  0  0  0  0  0  0  0  0  0  0
    2.5003    5.8230    0.0000 C   0  0  0  0  0  0  0  0  0  0  0  0
    1.6928    4.5589    0.0000 C   0  0  0  0  0  0  0  0  0  0  0  0
    2.3838    3.2275    0.0000 C   0  0  0  0  0  0  0  0  0  0  0  0
    1.8567    1.8232    0.0000 N   0  0  0  0  0  0  0  0  0  0  0  0
    3.0294    0.8879    0.0000 C   0  0  0  0  0  0  0  0  0  0  0  0
    3.0294   -0.6121    0.0000 C   0  0  0  0  0  0  0  0  0  0  0  0
    0.9624    4.1365    0.0000 H   0  0  0  0  0  0  0  0  0  0  0  0
   -0.5688    3.1036    0.0000 H   0  0  0  0  0  0  0  0  0  0  0  0
    1.6530    2.5845    0.0000 H   0  0  0  0  0  0  0  0  0  0  0  0
    0.8578   -2.6401    0.0000 H   0  0  0  0  0  0  0  0  0  0  0  0
   -1.3442   -2.2172    0.0000 H   0  0  0  0  0  0  0  0  0  0  0  0
   -2.5321   -0.7762    0.0000 H   0  0  0  0  0  0  0  0  0  0  0  0
   -2.7036    2.8512    0.0000 H   0  0  0  0  0  0  0  0  0  0  0  0
   -2.8615    2.0548    0.0000 H   0  0  0  0  0  0  0  0  0  0  0  0
   -2.5503   -0.9066    0.0000 H   0  0  0  0  0  0  0  0  0  0  0  0
   -4.8975    1.6499    0.0000 H   0  0  0  0  0  0  0  0  0  0  0  0
    0.1943   -4.3503    0.0000 H   0  0  0  0  0  0  0  0  0  0  0  0
    1.8094   -6.8785    0.0000 H   0  0  0  0  0  0  0  0  0  0  0  0
    4.8063   -6.7439    0.0000 H   0  0  0  0  0  0  0  0  0  0  0  0
    6.1883   -4.0811    0.0000 H   0  0  0  0  0  0  0  0  0  0  0  0
    9.3886    0.2143    0.0000 H   0  0  0  0  0  0  0  0  0  0  0  0
    8.3060    2.1778    0.0000 H   0  0  0  0  0  0  0  0  0  0  0  0
    6.3968    2.7981    0.0000 H   0  0  0  0  0  0  0  0  0  0  0  0
    6.1883    4.3570    0.0000 H   0  0  0  0  0  0  0  0  0  0  0  0
    4.8063    7.0198    0.0000 H   0  0  0  0  0  0  0  0  0  0  0  0
    1.8094    7.1544    0.0000 H   0  0  0  0  0  0  0  0  0  0  0  0
    0.1943    4.6262    0.0000 H   0  0  0  0  0  0  0  0  0  0  0  0
  2  1  1  6
  2  3  1  0
  3  4  1  0
  4  5  1  0
  5  6  1  0
  6  7  1  1
  6  8  1  0
  8  9  1  0
  4 10  1  0
 10 11  1  0
 11 12  2  0
 12 13  1  0
 13 14  2  0
 14 15  1  0
 15 16  2  0
 16 17  1  0
 17 18  2  0
 18 19  1  0
 19 20  2  0
 19 21  1  0
 21 22  1  0
 22 23  1  0
 23 24  2  0
 24 25  1  0
 25 26  2  0
 26 27  1  0
 27 28  2  0
 28 29  1  0
 29 30  2  0
 30 31  1  0
 31 32  1  0
 32 33  2  0
  6  2  1  0
 33 10  1  0
 31  2  1  0
 16 11  1  0
 33 17  1  0
 23 18  1  0
 32 24  1  0
 30 25  1  0
  1 34  1  0
  1 35  1  0
  1 36  1  0
  4 37  1  1
  5 38  1  0
  5 39  1  0
  7 40  1  0
  8 41  1  0
  8 42  1  0
  9 43  1  0
 12 44  1  0
 13 45  1  0
 14 46  1  0
 15 47  1  0
 21 48  1  0
 22 49  1  0
 22 50  1  0
 26 51  1  0
 27 52  1  0
 28 53  1  0
 29 54  1  0
M  END
$$$$
[H]/C(C(=O)N([H])[C@]([H])(C(=O)N([H])C([H])([H])C([H])([H])C([H])([H])C([H])([H])C([H])([H])N([H])C(=O)c1c([H])c(F)c([H])c([H])c1F)C([H])([H])[H])=C(/[H])c1c([H])c([H])c(OC([H])([H])C([H])([H])N2C([H])([H])C([H])([H])C([H])([H])C([H])([H])C([H])([H])C2([H])[H])c([H])c1[H]
     RDKit          3D

 84 86  0  0  0  0  0  0  0  0999 V2000
   -2.2718    1.5591    3.5836 C   0  0  0  0  0  0  0  0  0  0  0  0
   -2.2150    0.5162    2.4890 C   0  0  2  0  0  0  0  0  0  0  0  0
   -0.8863    0.0330    2.2909 N   0  0  0  0  0  0  0  0  0  0  0  0
   -0.5327   -1.3227    2.4696 C   0  0  0  0  0  0  0  0  0  0  0  0
   -1.4325   -2.1230    2.8104 O   0  0  0  0  0  0  0  0  0  0  0  0
    0.8105   -1.8520    2.2851 C   0  0  0  0  0  0  0  0  0  0  0  0
    1.8441   -1.1393    1.9427 C   0  0  0  0  0  0  0  0  0  0  0  0
    3.2038   -1.5941    1.7417 C   0  0  0  0  0  0  0  0  0  0  0  0
    4.1938   -0.6996    1.4020 C   0  0  0  0  0  0  0  0  0  0  0  0
    5.5103   -1.0989    1.2076 C   0  0  0  0  0  0  0  0  0  0  0  0
    5.9077   -2.4059    1.3395 C   0  0  0  0  0  0  0  0  0  0  0  0
    7.1828   -2.8865    1.1632 O   0  0  0  0  0  0  0  0  0  0  0  0
    8.2637   -2.1112    0.7866 C   0  0  0  0  0  0  0  0  0  0  0  0
    8.1492   -1.5460   -0.5885 C   0  0  0  0  0  0  0  0  0  0  0  0
    9.2802   -0.7506   -0.9939 N   0  0  0  0  0  0  0  0  0  0  0  0
    9.0460   -0.2677   -2.3128 C   0  0  0  0  0  0  0  0  0  0  0  0
    9.7520    1.0207   -2.5596 C   0  0  0  0  0  0  0  0  0  0  0  0
    8.8580    2.1570   -2.1400 C   0  0  0  0  0  0  0  0  0  0  0  0
    8.0088    1.8536   -0.9357 C   0  0  0  0  0  0  0  0  0  0  0  0
    8.8090    1.3620    0.2283 C   0  0  0  0  0  0  0  0  0  0  0  0
    9.6733    0.1794   -0.0459 C   0  0  0  0  0  0  0  0  0  0  0  0
    4.8905   -3.3189    1.6877 C   0  0  0  0  0  0  0  0  0  0  0  0
    3.5944   -2.9035    1.8762 C   0  0  0  0  0  0  0  0  0  0  0  0
   -2.8026    1.0615    1.2142 C   0  0  0  0  0  0  0  0  0  0  0  0
   -2.1930    1.0227    0.1188 O   0  0  0  0  0  0  0  0  0  0  0  0
   -4.0885    1.6413    1.2451 N   0  0  0  0  0  0  0  0  0  0  0  0
   -4.7207    2.1745    0.0872 C   0  0  0  0  0  0  0  0  0  0  0  0
   -4.9610    1.1422   -1.0048 C   0  0  0  0  0  0  0  0  0  0  0  0
   -5.8444    0.0437   -0.4669 C   0  0  0  0  0  0  0  0  0  0  0  0
   -6.0866   -0.9706   -1.5568 C   0  0  0  0  0  0  0  0  0  0  0  0
   -6.7523   -0.3739   -2.7508 C   0  0  0  0  0  0  0  0  0  0  0  0
   -8.0194    0.2446   -2.3345 N   0  0  0  0  0  0  0  0  0  0  0  0
   -9.0366   -0.5300   -1.7706 C   0  0  0  0  0  0  0  0  0  0  0  0
   -8.8745   -1.7985   -1.6289 O   0  0  0  0  0  0  0  0  0  0  0  0
  -10.3052   -0.0083   -1.3171 C   0  0  0  0  0  0  0  0  0  0  0  0
  -11.3681   -0.9033   -1.1735 C   0  0  0  0  0  0  0  0  0  0  0  0
  -12.6256   -0.5172   -0.7787 C   0  0  0  0  0  0  0  0  0  0  0  0
  -13.6052   -1.4581   -0.6647 F   0  0  0  0  0  0  0  0  0  0  0  0
  -12.8386    0.8171   -0.5134 C   0  0  0  0  0  0  0  0  0  0  0  0
  -11.8444    1.7366   -0.6337 C   0  0  0  0  0  0  0  0  0  0  0  0
  -10.5709    1.3152   -1.0384 C   0  0  0  0  0  0  0  0  0  0  0  0
   -9.6194    2.2496   -1.1188 F   0  0  0  0  0  0  0  0  0  0  0  0
   -1.2622    1.7148    4.0201 H   0  0  0  0  0  0  0  0  0  0  0  0
   -2.5930    2.5529    3.1811 H   0  0  0  0  0  0  0  0  0  0  0  0
   -2.9446    1.2548    4.4119 H   0  0  0  0  0  0  0  0  0  0  0  0
   -2.8402   -0.3621    2.8346 H   0  0  0  0  0  0  0  0  0  0  0  0
   -0.1524    0.7166    2.0019 H   0  0  0  0  0  0  0  0  0  0  0  0
    0.9907   -2.9164    2.4381 H   0  0  0  0  0  0  0  0  0  0  0  0
    1.6458   -0.0645    1.7928 H   0  0  0  0  0  0  0  0  0  0  0  0
    3.9745    0.3466    1.2758 H   0  0  0  0  0  0  0  0  0  0  0  0
    6.2634   -0.3385    0.9672 H   0  0  0  0  0  0  0  0  0  0  0  0
    8.2625   -1.2357    1.5219 H   0  0  0  0  0  0  0  0  0  0  0  0
    9.2229   -2.6266    0.9713 H   0  0  0  0  0  0  0  0  0  0  0  0
    7.1904   -1.1336   -0.8855 H   0  0  0  0  0  0  0  0  0  0  0  0
    8.2366   -2.4750   -1.2861 H   0  0  0  0  0  0  0  0  0  0  0  0
    9.2989   -1.0476   -3.0784 H   0  0  0  0  0  0  0  0  0  0  0  0
    7.9476   -0.0726   -2.3990 H   0  0  0  0  0  0  0  0  0  0  0  0
    9.8317    1.1079   -3.6945 H   0  0  0  0  0  0  0  0  0  0  0  0
   10.7853    1.0884   -2.2094 H   0  0  0  0  0  0  0  0  0  0  0  0
    8.1303    2.3693   -2.9749 H   0  0  0  0  0  0  0  0  0  0  0  0
    9.4711    3.0630   -2.0128 H   0  0  0  0  0  0  0  0  0  0  0  0
    7.5962    2.8601   -0.6147 H   0  0  0  0  0  0  0  0  0  0  0  0
    7.1155    1.2495   -1.1351 H   0  0  0  0  0  0  0  0  0  0  0  0
    8.1114    1.1389    1.0599 H   0  0  0  0  0  0  0  0  0  0  0  0
    9.4389    2.2158    0.6289 H   0  0  0  0  0  0  0  0  0  0  0  0
   10.7098    0.5591   -0.3208 H   0  0  0  0  0  0  0  0  0  0  0  0
    9.8892   -0.3693    0.9315 H   0  0  0  0  0  0  0  0  0  0  0  0
    5.2042   -4.3448    1.7909 H   0  0  0  0  0  0  0  0  0  0  0  0
    2.8370   -3.6455    2.1456 H   0  0  0  0  0  0  0  0  0  0  0  0
   -4.5907    1.6765    2.1641 H   0  0  0  0  0  0  0  0  0  0  0  0
   -4.0289    2.9586   -0.3300 H   0  0  0  0  0  0  0  0  0  0  0  0
   -5.7013    2.5963    0.3453 H   0  0  0  0  0  0  0  0  0  0  0  0
   -4.0585    0.6960   -1.4141 H   0  0  0  0  0  0  0  0  0  0  0  0
   -5.4942    1.6478   -1.8500 H   0  0  0  0  0  0  0  0  0  0  0  0
   -5.3076   -0.4745    0.3664 H   0  0  0  0  0  0  0  0  0  0  0  0
   -6.7726    0.5351   -0.1051 H   0  0  0  0  0  0  0  0  0  0  0  0
   -5.0371   -1.2558   -1.9168 H   0  0  0  0  0  0  0  0  0  0  0  0
   -6.5678   -1.8910   -1.1759 H   0  0  0  0  0  0  0  0  0  0  0  0
   -7.0041   -1.2427   -3.4294 H   0  0  0  0  0  0  0  0  0  0  0  0
   -6.1184    0.3537   -3.2610 H   0  0  0  0  0  0  0  0  0  0  0  0
   -8.1084    1.2780   -2.5000 H   0  0  0  0  0  0  0  0  0  0  0  0
  -11.1860   -1.9458   -1.3853 H   0  0  0  0  0  0  0  0  0  0  0  0
  -13.8447    1.1168   -0.1997 H   0  0  0  0  0  0  0  0  0  0  0  0
  -12.0241    2.7956   -0.4205 H   0  0  0  0  0  0  0  0  0  0  0  0
  1  2  1  0
  2  3  1  0
  3  4  1  0
  4  5  2  0
  4  6  1  0
  6  7  2  0
  7  8  1  0
  8  9  2  0
  9 10  1  0
 10 11  2  0
 11 12  1  0
 12 13  1  0
 13 14  1  0
 14 15  1  0
 15 16  1  0
 16 17  1  0
 17 18  1  0
 18 19  1  0
 19 20  1  0
 20 21  1  0
 11 22  1  0
 22 23  2  0
  2 24  1  0
 24 25  2  0
 24 26  1  0
 26 27  1  0
 27 28  1  0
 28 29  1  0
 29 30  1  0
 30 31  1  0
 31 32  1  0
 32 33  1  0
 33 34  2  0
 33 35  1  0
 35 36  2  0
 36 37  1  0
 37 38  1  0
 37 39  2  0
 39 40  1  0
 40 41  2  0
 41 42  1  0
 23  8  1  0
 41 35  1  0
 21 15  1  0
  1 43  1  0
  1 44  1  0
  1 45  1  0
  2 46  1  1
  3 47  1  0
  6 48  1  0
  7 49  1  0
  9 50  1  0
 10 51  1  0
 13 52  1  0
 13 53  1  0
 14 54  1  0
 14 55  1  0
 16 56  1  0
 16 57  1  0
 17 58  1  0
 17 59  1  0
 18 60  1  0
 18 61  1  0
 19 62  1  0
 19 63  1  0
 20 64  1  0
 20 65  1  0
 21 66  1  0
 21 67  1  0
 22 68  1  0
 23 69  1  0
 26 70  1  0
 27 71  1  0
 27 72  1  0
 28 73  1  0
 28 74  1  0
 29 75  1  0
 29 76  1  0
 30 77  1  0
 30 78  1  0
 31 79  1  0
 31 80  1  0
 32 81  1  0
 36 82  1  0
 39 83  1  0
 40 84  1  0
M  END
$$$$
[H]C1=C2C([H])([H])C([H])([H])[C@@]3([H])[C@]4([H])C([H])([H])C([H])([H])C(C([H])([H])[H])(C([H])([H])[H])[C@@]4(C([H])([H])[H])C([H])([H])C([H])([H])[C@]3([H])[C@@]2(C([H])([H])[H])C([H])([H])C([H])([H])C1=O
     RDKit          3D

 54 57  0  0  0  0  0  0  0  0999 V2000
   -1.9234    1.3951   -1.0864 C   0  0  0  0  0  0  0  0  0  0  0  0
   -1.8603    0.5149    0.1170 C   0  0  2  0  0  0  0  0  0  0  0  0
   -1.1095    1.1672    1.2187 C   0  0  0  0  0  0  0  0  0  0  0  0
    0.3315    1.3167    0.8497 C   0  0  0  0  0  0  0  0  0  0  0  0
    0.9966    0.0800    0.3718 C   0  0  1  0  0  0  0  0  0  0  0  0
    0.1831   -0.6558   -0.7030 C   0  0  1  0  0  0  0  0  0  0  0  0
    0.7832   -2.0363   -0.8402 C   0  0  0  0  0  0  0  0  0  0  0  0
    2.2048   -1.9354   -1.3488 C   0  0  0  0  0  0  0  0  0  0  0  0
    2.9615   -0.9626   -0.5066 C   0  0  0  0  0  0  0  0  0  0  0  0
    4.1316   -1.3250   -0.0210 C   0  0  0  0  0  0  0  0  0  0  0  0
    4.9274   -0.4207    0.8157 C   0  0  0  0  0  0  0  0  0  0  0  0
    6.1498   -0.4998    0.9951 O   0  0  0  0  0  0  0  0  0  0  0  0
    4.1573    0.6659    1.4837 C   0  0  0  0  0  0  0  0  0  0  0  0
    3.2094    1.2960    0.4909 C   0  0  0  0  0  0  0  0  0  0  0  0
    2.3402    0.3618   -0.2615 C   0  0  2  0  0  0  0  0  0  0  0  0
    2.1384    1.0008   -1.6499 C   0  0  0  0  0  0  0  0  0  0  0  0
   -1.1750   -0.8163   -0.1212 C   0  0  2  0  0  0  0  0  0  0  0  0
   -2.1772   -1.5417   -0.9172 C   0  0  0  0  0  0  0  0  0  0  0  0
   -3.4034   -1.3599   -0.0405 C   0  0  0  0  0  0  0  0  0  0  0  0
   -3.2452    0.0520    0.4879 C   0  0  0  0  0  0  0  0  0  0  0  0
   -4.3347    0.8722   -0.1724 C   0  0  0  0  0  0  0  0  0  0  0  0
   -3.4943    0.1061    1.9780 C   0  0  0  0  0  0  0  0  0  0  0  0
   -2.0882    2.4469   -0.7095 H   0  0  0  0  0  0  0  0  0  0  0  0
   -2.8200    1.2016   -1.7342 H   0  0  0  0  0  0  0  0  0  0  0  0
   -1.0292    1.4346   -1.7042 H   0  0  0  0  0  0  0  0  0  0  0  0
   -1.4992    2.1778    1.4662 H   0  0  0  0  0  0  0  0  0  0  0  0
   -1.1858    0.5143    2.1215 H   0  0  0  0  0  0  0  0  0  0  0  0
    0.8520    1.5968    1.8171 H   0  0  0  0  0  0  0  0  0  0  0  0
    0.4678    2.1956    0.1922 H   0  0  0  0  0  0  0  0  0  0  0  0
    1.1622   -0.6187    1.1990 H   0  0  0  0  0  0  0  0  0  0  0  0
    0.2199   -0.1700   -1.6731 H   0  0  0  0  0  0  0  0  0  0  0  0
    0.1959   -2.6068   -1.5946 H   0  0  0  0  0  0  0  0  0  0  0  0
    0.7446   -2.5645    0.1363 H   0  0  0  0  0  0  0  0  0  0  0  0
    2.6295   -2.9672   -1.2231 H   0  0  0  0  0  0  0  0  0  0  0  0
    2.2148   -1.7214   -2.4131 H   0  0  0  0  0  0  0  0  0  0  0  0
    4.5609   -2.3068   -0.2172 H   0  0  0  0  0  0  0  0  0  0  0  0
    3.6663    0.3369    2.4124 H   0  0  0  0  0  0  0  0  0  0  0  0
    4.8859    1.4553    1.7565 H   0  0  0  0  0  0  0  0  0  0  0  0
    3.8927    1.8106   -0.2560 H   0  0  0  0  0  0  0  0  0  0  0  0
    2.6190    2.0712    0.9860 H   0  0  0  0  0  0  0  0  0  0  0  0
    3.0774    1.5827   -1.8986 H   0  0  0  0  0  0  0  0  0  0  0  0
    2.0365    0.2735   -2.4478 H   0  0  0  0  0  0  0  0  0  0  0  0
    1.3388    1.7386   -1.6489 H   0  0  0  0  0  0  0  0  0  0  0  0
   -1.0751   -1.2985    0.8710 H   0  0  0  0  0  0  0  0  0  0  0  0
   -1.9252   -2.6235   -0.9652 H   0  0  0  0  0  0  0  0  0  0  0  0
   -2.3554   -1.1198   -1.9202 H   0  0  0  0  0  0  0  0  0  0  0  0
   -4.3445   -1.5133   -0.5834 H   0  0  0  0  0  0  0  0  0  0  0  0
   -3.3113   -2.0875    0.8012 H   0  0  0  0  0  0  0  0  0  0  0  0
   -5.2665    0.7650    0.4512 H   0  0  0  0  0  0  0  0  0  0  0  0
   -4.6128    0.4139   -1.1579 H   0  0  0  0  0  0  0  0  0  0  0  0
   -4.0606    1.9317   -0.2880 H   0  0  0  0  0  0  0  0  0  0  0  0
   -3.0448   -0.7375    2.5213 H   0  0  0  0  0  0  0  0  0  0  0  0
   -3.1355    1.0358    2.4157 H   0  0  0  0  0  0  0  0  0  0  0  0
   -4.6019    0.0774    2.1477 H   0  0  0  0  0  0  0  0  0  0  0  0
  2  1  1  6
  2  3  1  0
  3  4  1  0
  4  5  1  0
  5  6  1  0
  6  7  1  0
  7  8  1  0
  8  9  1  0
  9 10  2  0
 10 11  1  0
 11 12  2  0
 11 13  1  0
 13 14  1  0
 14 15  1  0
 15 16  1  6
  6 17  1  0
 17 18  1  0
 18 19  1  0
 19 20  1  0
 20 21  1  0
 20 22  1  0
 17  2  1  0
 20  2  1  0
 15  5  1  0
 15  9  1  0
  1 23  1  0
  1 24  1  0
  1 25  1  0
  3 26  1  0
  3 27  1  0
  4 28  1  0
  4 29  1  0
  5 30  1  1
  6 31  1  6
  7 32  1  0
  7 33  1  0
  8 34  1  0
  8 35  1  0
 10 36  1  0
 13 37  1  0
 13 38  1  0
 14 39  1  0
 14 40  1  0
 16 41  1  0
 16 42  1  0
 16 43  1  0
 17 44  1  1
 18 45  1  0
 18 46  1  0
 19 47  1  0
 19 48  1  0
 21 49  1  0
 21 50  1  0
 21 51  1  0
 22 52  1  0
 22 53  1  0
 22 54  1  0
M  END
$$$$
[H]c1c([H])c([H])c2c(c1[H])c1c3c(c4c5c([H])c([H])c([H])c([H])c5n5c4c1n2[C@@]1(C([H])([H])[H])O[C@]5([H])C([H])([H])[C@]([H])(N([H])C([H])([H])[H])[C@@]1([H])OC([H])([H])[H])C(=O)N([H])C3([H])[H]
     RDKit          3D

 61 68  0  0  0  0  0  0  0  0999 V2000
   -4.1558   -1.9431    1.1588 C   0  0  0  0  0  0  0  0  0  0  0  0
   -2.9510   -1.2988    1.5181 N   0  0  0  0  0  0  0  0  0  0  0  0
   -2.0807   -0.8600    0.4920 C   0  0  1  0  0  0  0  0  0  0  0  0
   -1.6342   -2.0226   -0.3955 C   0  0  0  0  0  0  0  0  0  0  0  0
   -0.7617   -1.5377   -1.5088 C   0  0  1  0  0  0  0  0  0  0  0  0
   -0.9681   -0.3443   -1.9998 O   0  0  0  0  0  0  0  0  0  0  0  0
   -1.4493    0.7203   -1.2530 C   0  0  1  0  0  0  0  0  0  0  0  0
   -1.8886    1.6949   -2.3320 C   0  0  0  0  0  0  0  0  0  0  0  0
   -2.5793    0.2007   -0.4212 C   0  0  2  0  0  0  0  0  0  0  0  0
   -3.2483    1.1396    0.3092 O   0  0  0  0  0  0  0  0  0  0  0  0
   -4.5606    1.3976    0.0437 C   0  0  0  0  0  0  0  0  0  0  0  0
   -0.3147    1.2600   -0.4993 N   0  0  0  0  0  0  0  0  0  0  0  0
   -0.1830    2.5167   -0.0369 C   0  0  0  0  0  0  0  0  0  0  0  0
   -0.9889    3.6063   -0.0588 C   0  0  0  0  0  0  0  0  0  0  0  0
   -0.6121    4.8097    0.5000 C   0  0  0  0  0  0  0  0  0  0  0  0
    0.6187    4.9759    1.1199 C   0  0  0  0  0  0  0  0  0  0  0  0
    1.4479    3.8772    1.1500 C   0  0  0  0  0  0  0  0  0  0  0  0
    1.0593    2.6881    0.5903 C   0  0  0  0  0  0  0  0  0  0  0  0
    1.6976    1.4894    0.5031 C   0  0  0  0  0  0  0  0  0  0  0  0
    2.9401    1.0641    0.9343 C   0  0  0  0  0  0  0  0  0  0  0  0
    4.0147    1.7914    1.6605 C   0  0  0  0  0  0  0  0  0  0  0  0
    5.0836    0.8687    1.8446 N   0  0  0  0  0  0  0  0  0  0  0  0
    4.7142   -0.3865    1.2763 C   0  0  0  0  0  0  0  0  0  0  0  0
    5.4696   -1.3577    1.3091 O   0  0  0  0  0  0  0  0  0  0  0  0
    3.3871   -0.2475    0.7186 C   0  0  0  0  0  0  0  0  0  0  0  0
    2.5135   -1.0867    0.0529 C   0  0  0  0  0  0  0  0  0  0  0  0
    2.5652   -2.4180   -0.3313 C   0  0  0  0  0  0  0  0  0  0  0  0
    3.5101   -3.3771   -0.2018 C   0  0  0  0  0  0  0  0  0  0  0  0
    3.2584   -4.6635   -0.7091 C   0  0  0  0  0  0  0  0  0  0  0  0
    2.0695   -4.9340   -1.3251 C   0  0  0  0  0  0  0  0  0  0  0  0
    1.0884   -3.9802   -1.4726 C   0  0  0  0  0  0  0  0  0  0  0  0
    1.3575   -2.7294   -0.9683 C   0  0  0  0  0  0  0  0  0  0  0  0
    0.6082   -1.6368   -0.9706 N   0  0  0  0  0  0  0  0  0  0  0  0
    1.2675   -0.6351   -0.3712 C   0  0  0  0  0  0  0  0  0  0  0  0
    0.8452    0.6650   -0.1514 C   0  0  0  0  0  0  0  0  0  0  0  0
   -4.9798   -1.5161    1.7909 H   0  0  0  0  0  0  0  0  0  0  0  0
   -4.1702   -3.0438    1.4002 H   0  0  0  0  0  0  0  0  0  0  0  0
   -4.4563   -1.7550    0.1088 H   0  0  0  0  0  0  0  0  0  0  0  0
   -2.5027   -1.7423    2.3291 H   0  0  0  0  0  0  0  0  0  0  0  0
   -1.1574   -0.4745    1.0562 H   0  0  0  0  0  0  0  0  0  0  0  0
   -1.1276   -2.7482    0.2625 H   0  0  0  0  0  0  0  0  0  0  0  0
   -2.5365   -2.4864   -0.8252 H   0  0  0  0  0  0  0  0  0  0  0  0
   -0.8051   -2.2939   -2.3191 H   0  0  0  0  0  0  0  0  0  0  0  0
   -2.8708    2.1485   -2.1755 H   0  0  0  0  0  0  0  0  0  0  0  0
   -1.0891    2.4862   -2.4855 H   0  0  0  0  0  0  0  0  0  0  0  0
   -1.9558    1.2339   -3.3525 H   0  0  0  0  0  0  0  0  0  0  0  0
   -3.2952   -0.2451   -1.1383 H   0  0  0  0  0  0  0  0  0  0  0  0
   -4.8579    2.1968    0.8179 H   0  0  0  0  0  0  0  0  0  0  0  0
   -4.7134    1.9913   -0.9141 H   0  0  0  0  0  0  0  0  0  0  0  0
   -5.2774    0.5845    0.0931 H   0  0  0  0  0  0  0  0  0  0  0  0
   -1.9377    3.5500   -0.5099 H   0  0  0  0  0  0  0  0  0  0  0  0
   -1.2582    5.6788    0.4803 H   0  0  0  0  0  0  0  0  0  0  0  0
    0.9168    5.9220    1.5600 H   0  0  0  0  0  0  0  0  0  0  0  0
    2.4244    3.9900    1.6355 H   0  0  0  0  0  0  0  0  0  0  0  0
    4.3906    2.6434    1.0489 H   0  0  0  0  0  0  0  0  0  0  0  0
    3.6444    2.1852    2.6335 H   0  0  0  0  0  0  0  0  0  0  0  0
    5.9851    1.1013    2.3240 H   0  0  0  0  0  0  0  0  0  0  0  0
    4.4514   -3.2125    0.2699 H   0  0  0  0  0  0  0  0  0  0  0  0
    4.0299   -5.4241   -0.5965 H   0  0  0  0  0  0  0  0  0  0  0  0
    1.8571   -5.9210   -1.7227 H   0  0  0  0  0  0  0  0  0  0  0  0
    0.1517   -4.1556   -1.9466 H   0  0  0  0  0  0  0  0  0  0  0  0
  1  2  1  0
  2  3  1  0
  3  4  1  0
  4  5  1  0
  5  6  1  0
  6  7  1  0
  7  8  1  6
  7  9  1  0
  9 10  1  0
 10 11  1  0
  7 12  1  0
 12 13  1  0
 13 14  2  0
 14 15  1  0
 15 16  2  0
 16 17  1  0
 17 18  2  0
 18 19  1  0
 19 20  2  0
 20 21  1  0
 21 22  1  0
 22 23  1  0
 23 24  2  0
 23 25  1  0
 25 26  2  0
 26 27  1  0
 27 28  2  0
 28 29  1  0
 29 30  2  0
 30 31  1  0
 31 32  2  0
 32 33  1  0
 33 34  1  0
 34 35  2  0
  9  3  1  0
 35 12  1  0
 33  5  1  0
 18 13  1  0
 35 19  1  0
 25 20  1  0
 34 26  1  0
 32 27  1  0
  1 36  1  0
  1 37  1  0
  1 38  1  0
  2 39  1  0
  3 40  1  1
  4 41  1  0
  4 42  1  0
  5 43  1  6
  8 44  1  0
  8 45  1  0
  8 46  1  0
  9 47  1  6
 11 48  1  0
 11 49  1  0
 11 50  1  0
 14 51  1  0
 15 52  1  0
 16 53  1  0
 17 54  1  0
 21 55  1  0
 21 56  1  0
 22 57  1  0
 28 58  1  0
 29 59  1  0
 30 60  1  0
 31 61  1  0
M  END
$$$$
[H]OC(=O)[C@@]1([H])N(C([H])([H])c2c([H])c([H])c([H])c(Cl)c2O[H])c2c([H])c([H])c([H])c(Cl)c2C1([H])[H]
     RDKit          3D

 35 37  0  0  0  0  0  0  0  0999 V2000
   -2.1444    2.2100   -0.9960 O   0  0  0  0  0  0  0  0  0  0  0  0
   -1.8039    1.2745   -1.9255 C   0  0  0  0  0  0  0  0  0  0  0  0
   -2.2856    1.3426   -3.0868 O   0  0  0  0  0  0  0  0  0  0  0  0
   -0.8562    0.1761   -1.5433 C   0  0  2  0  0  0  0  0  0  0  0  0
   -1.6647   -1.1015   -1.5353 C   0  0  0  0  0  0  0  0  0  0  0  0
   -2.2118   -1.1268   -0.1551 C   0  0  0  0  0  0  0  0  0  0  0  0
   -3.2475   -1.8497    0.3835 C   0  0  0  0  0  0  0  0  0  0  0  0
   -4.1255   -2.9486   -0.6597 Cl  0  0  0  0  0  0  0  0  0  0  0  0
   -3.6093   -1.7329    1.7108 C   0  0  0  0  0  0  0  0  0  0  0  0
   -2.9002   -0.8580    2.5145 C   0  0  0  0  0  0  0  0  0  0  0  0
   -1.8662   -0.1405    1.9642 C   0  0  0  0  0  0  0  0  0  0  0  0
   -1.4902   -0.2468    0.6311 C   0  0  0  0  0  0  0  0  0  0  0  0
   -0.4826    0.3701   -0.1637 N   0  0  0  0  0  0  0  0  0  0  0  0
    0.6634    1.0447    0.3339 C   0  0  0  0  0  0  0  0  0  0  0  0
    1.9672    0.4474    0.0561 C   0  0  0  0  0  0  0  0  0  0  0  0
    2.2238   -0.7143   -0.6127 C   0  0  0  0  0  0  0  0  0  0  0  0
    3.5315   -1.1655   -0.7929 C   0  0  0  0  0  0  0  0  0  0  0  0
    4.6084   -0.4533   -0.3012 C   0  0  0  0  0  0  0  0  0  0  0  0
    4.3711    0.7161    0.3739 C   0  0  0  0  0  0  0  0  0  0  0  0
    5.7168    1.6654    1.0235 Cl  0  0  0  0  0  0  0  0  0  0  0  0
    3.0791    1.1431    0.5407 C   0  0  0  0  0  0  0  0  0  0  0  0
    2.8960    2.3290    1.2294 O   0  0  0  0  0  0  0  0  0  0  0  0
   -1.9772    3.2052   -1.0474 H   0  0  0  0  0  0  0  0  0  0  0  0
   -0.0022    0.1360   -2.2477 H   0  0  0  0  0  0  0  0  0  0  0  0
   -1.0409   -1.9879   -1.7210 H   0  0  0  0  0  0  0  0  0  0  0  0
   -2.4797   -1.0810   -2.2924 H   0  0  0  0  0  0  0  0  0  0  0  0
   -4.4380   -2.3333    2.0738 H   0  0  0  0  0  0  0  0  0  0  0  0
   -3.1999   -0.7802    3.5560 H   0  0  0  0  0  0  0  0  0  0  0  0
   -1.3135    0.5472    2.6085 H   0  0  0  0  0  0  0  0  0  0  0  0
    0.7323    2.1101   -0.0536 H   0  0  0  0  0  0  0  0  0  0  0  0
    0.5681    1.1951    1.4528 H   0  0  0  0  0  0  0  0  0  0  0  0
    1.3989   -1.2830   -0.9942 H   0  0  0  0  0  0  0  0  0  0  0  0
    3.7451   -2.0719   -1.3142 H   0  0  0  0  0  0  0  0  0  0  0  0
    5.6380   -0.7658   -0.4178 H   0  0  0  0  0  0  0  0  0  0  0  0
    1.9997    2.7283    1.4078 H   0  0  0  0  0  0  0  0  0  0  0  0
  1  2  1  0
  2  3  2  0
  2  4  1  0
  4  5  1  0
  5  6  1  0
  6  7  2  0
  7  8  1  0
  7  9  1  0
  9 10  2  0
 10 11  1  0
 11 12  2  0
 12 13  1  0
 13 14  1  0
 14 15  1  0
 15 16  2  0
 16 17  1  0
 17 18  2  0
 18 19  1  0
 19 20  1  0
 19 21  2  0
 21 22  1  0
 13  4  1  0
 21 15  1  0
 12  6  1  0
  1 23  1  0
  4 24  1  6
  5 25  1  0
  5 26  1  0
  9 27  1  0
 10 28  1  0
 11 29  1  0
 14 30  1  0
 14 31  1  0
 16 32  1  0
 17 33  1  0
 18 34  1  0
 22 35  1  0
M  END
$$$$
[H]c1c([H])c([H])c(C(=O)N([H])c2nc3c(C4([H])C([H])([H])C([H])([H])N(C([H])([H])[H])C([H])([H])C4([H])[H])c([H])n([H])c3c([H])c2[H])c([H])c1[H]
     RDKit          3D

 47 50  0  0  0  0  0  0  0  0999 V2000
    5.1710    2.1348   -0.4865 C   0  0  0  0  0  0  0  0  0  0  0  0
    4.0708    1.5340   -1.2588 N   0  0  0  0  0  0  0  0  0  0  0  0
    4.4242    0.1406   -1.4184 C   0  0  0  0  0  0  0  0  0  0  0  0
    3.3338   -0.7165   -1.9584 C   0  0  0  0  0  0  0  0  0  0  0  0
    2.0108   -0.6034   -1.2920 C   0  0  0  0  0  0  0  0  0  0  0  0
    1.7326    0.8580   -1.0223 C   0  0  0  0  0  0  0  0  0  0  0  0
    2.9125    1.5571   -0.3753 C   0  0  0  0  0  0  0  0  0  0  0  0
    1.8781   -1.4376   -0.0764 C   0  0  0  0  0  0  0  0  0  0  0  0
    2.8696   -2.2183    0.5284 C   0  0  0  0  0  0  0  0  0  0  0  0
    2.3005   -2.7911    1.5957 N   0  0  0  0  0  0  0  0  0  0  0  0
    1.0006   -2.4193    1.7056 C   0  0  0  0  0  0  0  0  0  0  0  0
    0.0154   -2.7411    2.6218 C   0  0  0  0  0  0  0  0  0  0  0  0
   -1.2363   -2.1831    2.4467 C   0  0  0  0  0  0  0  0  0  0  0  0
   -1.5262   -1.3308    1.4046 C   0  0  0  0  0  0  0  0  0  0  0  0
   -2.8379   -0.7550    1.2289 N   0  0  0  0  0  0  0  0  0  0  0  0
   -3.1007    0.1146    0.1492 C   0  0  0  0  0  0  0  0  0  0  0  0
   -2.1973    0.3876   -0.6516 O   0  0  0  0  0  0  0  0  0  0  0  0
   -4.4203    0.6837   -0.0201 C   0  0  0  0  0  0  0  0  0  0  0  0
   -4.6568    1.5464   -1.0672 C   0  0  0  0  0  0  0  0  0  0  0  0
   -5.8833    2.1130   -1.2782 C   0  0  0  0  0  0  0  0  0  0  0  0
   -6.9453    1.8380   -0.4386 C   0  0  0  0  0  0  0  0  0  0  0  0
   -6.7455    0.9790    0.6197 C   0  0  0  0  0  0  0  0  0  0  0  0
   -5.4881    0.4177    0.8101 C   0  0  0  0  0  0  0  0  0  0  0  0
   -0.5268   -1.0571    0.5486 N   0  0  0  0  0  0  0  0  0  0  0  0
    0.7198   -1.5622    0.6529 C   0  0  0  0  0  0  0  0  0  0  0  0
    4.9084    3.1513   -0.1965 H   0  0  0  0  0  0  0  0  0  0  0  0
    5.2816    1.5199    0.4532 H   0  0  0  0  0  0  0  0  0  0  0  0
    6.0928    2.0579   -1.0985 H   0  0  0  0  0  0  0  0  0  0  0  0
    4.8409   -0.1925   -0.4475 H   0  0  0  0  0  0  0  0  0  0  0  0
    5.2867    0.0417   -2.1428 H   0  0  0  0  0  0  0  0  0  0  0  0
    3.7188   -1.7531   -2.0093 H   0  0  0  0  0  0  0  0  0  0  0  0
    3.1867   -0.4125   -3.0359 H   0  0  0  0  0  0  0  0  0  0  0  0
    1.2269   -0.9296   -2.0221 H   0  0  0  0  0  0  0  0  0  0  0  0
    0.9137    0.9085   -0.2773 H   0  0  0  0  0  0  0  0  0  0  0  0
    1.4022    1.3818   -1.9432 H   0  0  0  0  0  0  0  0  0  0  0  0
    2.5880    2.5930   -0.1525 H   0  0  0  0  0  0  0  0  0  0  0  0
    3.1041    1.0246    0.5834 H   0  0  0  0  0  0  0  0  0  0  0  0
    3.8833   -2.3018    0.1554 H   0  0  0  0  0  0  0  0  0  0  0  0
    2.7736   -3.4321    2.2564 H   0  0  0  0  0  0  0  0  0  0  0  0
    0.2513   -3.4101    3.4354 H   0  0  0  0  0  0  0  0  0  0  0  0
   -2.0140   -2.4287    3.1581 H   0  0  0  0  0  0  0  0  0  0  0  0
   -3.5471   -1.0288    1.9406 H   0  0  0  0  0  0  0  0  0  0  0  0
   -3.8580    1.8115   -1.7766 H   0  0  0  0  0  0  0  0  0  0  0  0
   -6.0409    2.7938   -2.1175 H   0  0  0  0  0  0  0  0  0  0  0  0
   -7.9009    2.3087   -0.6424 H   0  0  0  0  0  0  0  0  0  0  0  0
   -7.5869    0.7803    1.2590 H   0  0  0  0  0  0  0  0  0  0  0  0
   -5.3862   -0.2471    1.6525 H   0  0  0  0  0  0  0  0  0  0  0  0
  1  2  1  0
  2  3  1  0
  3  4  1  0
  4  5  1  0
  5  6  1  0
  6  7  1  0
  5  8  1  0
  8  9  2  0
  9 10  1  0
 10 11  1  0
 11 12  2  0
 12 13  1  0
 13 14  2  0
 14 15  1  0
 15 16  1  0
 16 17  2  0
 16 18  1  0
 18 19  2  0
 19 20  1  0
 20 21  2  0
 21 22  1  0
 22 23  2  0
 14 24  1  0
 24 25  2  0
  7  2  1  0
 25  8  1  0
 25 11  1  0
 23 18  1  0
  1 26  1  0
  1 27  1  0
  1 28  1  0
  3 29  1  0
  3 30  1  0
  4 31  1  0
  4 32  1  0
  5 33  1  0
  6 34  1  0
  6 35  1  0
  7 36  1  0
  7 37  1  0
  9 38  1  0
 10 39  1  0
 12 40  1  0
 13 41  1  0
 15 42  1  0
 19 43  1  0
 20 44  1  0
 21 45  1  0
 22 46  1  0
 23 47  1  0
M  END
$$$$
[H]OC(=O)[C@@]([H])(N([H])C(=O)[C@@]1([H])N(C(=O)[C@@]2([H])N(C(=O)[C@@]([H])(N([H])C(=O)C([H])([H])[H])C([H])([H])c3c([H])c([H])c([H])c([H])c3[H])C([H])([H])C([H])([H])C2([H])[H])C([H])([H])C([H])([H])C1([H])[H])C([H])([H])[H]
     RDKit          3D

 66 68  0  0  0  0  0  0  0  0999 V2000
    4.1585   -2.4414    3.8905 C   0  0  0  0  0  0  0  0  0  0  0  0
    4.1545   -0.9369    3.6461 C   0  0  2  0  0  0  0  0  0  0  0  0
    4.2831   -0.6794    2.2084 N   0  0  0  0  0  0  0  0  0  0  0  0
    3.3382    0.0657    1.4684 C   0  0  0  0  0  0  0  0  0  0  0  0
    2.3420    0.5421    2.0657 O   0  0  0  0  0  0  0  0  0  0  0  0
    3.4655    0.3136    0.0140 C   0  0  2  0  0  0  0  0  0  0  0  0
    4.7392    0.9611   -0.4051 C   0  0  0  0  0  0  0  0  0  0  0  0
    4.3751    2.3817   -0.6957 C   0  0  0  0  0  0  0  0  0  0  0  0
    2.8794    2.5222   -0.4644 C   0  0  0  0  0  0  0  0  0  0  0  0
    2.3836    1.1778   -0.4327 N   0  0  0  0  0  0  0  0  0  0  0  0
    1.0646    0.6771   -0.7496 C   0  0  0  0  0  0  0  0  0  0  0  0
    0.8535   -0.5166   -0.6151 O   0  0  0  0  0  0  0  0  0  0  0  0
    0.0948    1.6626   -1.2067 C   0  0  2  0  0  0  0  0  0  0  0  0
   -0.2473    2.6064    0.0038 C   0  0  0  0  0  0  0  0  0  0  0  0
   -1.6478    3.1062   -0.3370 C   0  0  0  0  0  0  0  0  0  0  0  0
   -1.8787    2.6154   -1.7386 C   0  0  0  0  0  0  0  0  0  0  0  0
   -1.1948    1.2881   -1.6228 N   0  0  0  0  0  0  0  0  0  0  0  0
   -1.8161    0.0936   -1.9696 C   0  0  0  0  0  0  0  0  0  0  0  0
   -1.2127   -1.0270   -2.0892 O   0  0  0  0  0  0  0  0  0  0  0  0
   -3.2833   -0.0069   -2.2405 C   0  0  2  0  0  0  0  0  0  0  0  0
   -4.1167    0.2120   -0.9926 C   0  0  0  0  0  0  0  0  0  0  0  0
   -3.8475   -0.7387    0.0883 C   0  0  0  0  0  0  0  0  0  0  0  0
   -2.8949   -0.5350    1.0697 C   0  0  0  0  0  0  0  0  0  0  0  0
   -2.6717   -1.4462    2.0802 C   0  0  0  0  0  0  0  0  0  0  0  0
   -3.4039   -2.6068    2.1434 C   0  0  0  0  0  0  0  0  0  0  0  0
   -4.3693   -2.8453    1.1749 C   0  0  0  0  0  0  0  0  0  0  0  0
   -4.5693   -1.9027    0.1665 C   0  0  0  0  0  0  0  0  0  0  0  0
   -3.6242   -1.3198   -2.7322 N   0  0  0  0  0  0  0  0  0  0  0  0
   -4.2954   -1.4928   -3.9515 C   0  0  0  0  0  0  0  0  0  0  0  0
   -4.6494   -2.8507   -4.4485 C   0  0  0  0  0  0  0  0  0  0  0  0
   -4.6020   -0.4885   -4.6307 O   0  0  0  0  0  0  0  0  0  0  0  0
    5.2525   -0.2821    4.3882 C   0  0  0  0  0  0  0  0  0  0  0  0
    5.3361   -0.3933    5.7582 O   0  0  0  0  0  0  0  0  0  0  0  0
    6.1090    0.3764    3.7686 O   0  0  0  0  0  0  0  0  0  0  0  0
    4.4808   -2.7255    4.8874 H   0  0  0  0  0  0  0  0  0  0  0  0
    3.1573   -2.8085    3.5971 H   0  0  0  0  0  0  0  0  0  0  0  0
    4.8558   -2.8490    3.0965 H   0  0  0  0  0  0  0  0  0  0  0  0
    3.1904   -0.4880    3.9528 H   0  0  0  0  0  0  0  0  0  0  0  0
    5.1472   -1.1005    1.7696 H   0  0  0  0  0  0  0  0  0  0  0  0
    3.4155   -0.6814   -0.5123 H   0  0  0  0  0  0  0  0  0  0  0  0
    5.1804    0.4517   -1.3171 H   0  0  0  0  0  0  0  0  0  0  0  0
    5.5215    0.9327    0.3716 H   0  0  0  0  0  0  0  0  0  0  0  0
    4.9122    3.1084   -0.0250 H   0  0  0  0  0  0  0  0  0  0  0  0
    4.6540    2.6722   -1.7319 H   0  0  0  0  0  0  0  0  0  0  0  0
    2.4813    3.1407   -1.2679 H   0  0  0  0  0  0  0  0  0  0  0  0
    2.6870    3.0572    0.4994 H   0  0  0  0  0  0  0  0  0  0  0  0
    0.5870    2.3454   -1.9827 H   0  0  0  0  0  0  0  0  0  0  0  0
   -0.3163    2.0044    0.9053 H   0  0  0  0  0  0  0  0  0  0  0  0
    0.4090    3.4707    0.0170 H   0  0  0  0  0  0  0  0  0  0  0  0
   -2.4197    2.6647    0.3168 H   0  0  0  0  0  0  0  0  0  0  0  0
   -1.6984    4.2130   -0.2549 H   0  0  0  0  0  0  0  0  0  0  0  0
   -2.8983    2.5537   -2.0372 H   0  0  0  0  0  0  0  0  0  0  0  0
   -1.2228    3.1985   -2.4368 H   0  0  0  0  0  0  0  0  0  0  0  0
   -3.5544    0.7371   -2.9865 H   0  0  0  0  0  0  0  0  0  0  0  0
   -4.1517    1.2590   -0.6634 H   0  0  0  0  0  0  0  0  0  0  0  0
   -5.1786    0.0091   -1.3420 H   0  0  0  0  0  0  0  0  0  0  0  0
   -2.3154    0.3497    1.0485 H   0  0  0  0  0  0  0  0  0  0  0  0
   -1.9186   -1.2632    2.8375 H   0  0  0  0  0  0  0  0  0  0  0  0
   -3.2393   -3.3336    2.9328 H   0  0  0  0  0  0  0  0  0  0  0  0
   -4.9554   -3.7689    1.2207 H   0  0  0  0  0  0  0  0  0  0  0  0
   -5.3400   -2.1508   -0.5593 H   0  0  0  0  0  0  0  0  0  0  0  0
   -3.3607   -2.1713   -2.1785 H   0  0  0  0  0  0  0  0  0  0  0  0
   -5.3734   -3.3402   -3.7211 H   0  0  0  0  0  0  0  0  0  0  0  0
   -3.7766   -3.5416   -4.4743 H   0  0  0  0  0  0  0  0  0  0  0  0
   -5.1070   -2.8388   -5.4539 H   0  0  0  0  0  0  0  0  0  0  0  0
    5.6426   -1.1989    6.2731 H   0  0  0  0  0  0  0  0  0  0  0  0
  1  2  1  0
  2  3  1  0
  3  4  1  0
  4  5  2  0
  4  6  1  0
  6  7  1  0
  7  8  1  0
  8  9  1  0
  9 10  1  0
 10 11  1  0
 11 12  2  0
 11 13  1  0
 13 14  1  0
 14 15  1  0
 15 16  1  0
 16 17  1  0
 17 18  1  0
 18 19  2  0
 18 20  1  0
 20 21  1  0
 21 22  1  0
 22 23  2  0
 23 24  1  0
 24 25  2  0
 25 26  1  0
 26 27  2  0
 20 28  1  0
 28 29  1  0
 29 30  1  0
 29 31  2  0
  2 32  1  0
 32 33  1  0
 32 34  2  0
 10  6  1  0
 17 13  1  0
 27 22  1  0
  1 35  1  0
  1 36  1  0
  1 37  1  0
  2 38  1  1
  3 39  1  0
  6 40  1  6
  7 41  1  0
  7 42  1  0
  8 43  1  0
  8 44  1  0
  9 45  1  0
  9 46  1  0
 13 47  1  6
 14 48  1  0
 14 49  1  0
 15 50  1  0
 15 51  1  0
 16 52  1  0
 16 53  1  0
 20 54  1  6
 21 55  1  0
 21 56  1  0
 23 57  1  0
 24 58  1  0
 25 59  1  0
 26 60  1  0
 27 61  1  0
 28 62  1  0
 30 63  1  0
 30 64  1  0
 30 65  1  0
 33 66  1  0
M  END
$$$$
[H]c1c([H])c([H])c(N([H])C(=O)N([H])c2c([H])c([H])c(C(=O)N([H])C3([H])C([H])([H])C([H])([H])N(S(=O)(=O)C([H])(C([H])([H])[H])C([H])([H])[H])C([H])([H])C3([H])[H])c([H])c2[H])c(OC(F)(F)F)c1[H]
     RDKit          3D

 63 65  0  0  0  0  0  0  0  0999 V2000
    8.6690   -1.3197   -0.8851 C   0  0  0  0  0  0  0  0  0  0  0  0
    8.7149    0.0406   -0.2287 C   0  0  0  0  0  0  0  0  0  0  0  0
    8.6421    1.1749   -1.2125 C   0  0  0  0  0  0  0  0  0  0  0  0
    7.5773    0.1993    1.1068 S   0  0  0  0  0  0  0  0  0  0  0  0
    7.8359    1.5641    1.7339 O   0  0  0  0  0  0  0  0  0  0  0  0
    7.9528   -0.8042    2.1563 O   0  0  0  0  0  0  0  0  0  0  0  0
    5.9485    0.1342    0.6894 N   0  0  0  0  0  0  0  0  0  0  0  0
    5.5498   -1.1220    0.0823 C   0  0  0  0  0  0  0  0  0  0  0  0
    4.0622   -1.2430    0.2822 C   0  0  0  0  0  0  0  0  0  0  0  0
    3.4343    0.0551    0.7280 C   0  0  0  0  0  0  0  0  0  0  0  0
    3.9753    1.2759    0.0728 C   0  0  0  0  0  0  0  0  0  0  0  0
    5.4675    1.1740   -0.1512 C   0  0  0  0  0  0  0  0  0  0  0  0
    1.9825    0.0401    0.4654 N   0  0  0  0  0  0  0  0  0  0  0  0
    1.1326    0.1507    1.5902 C   0  0  0  0  0  0  0  0  0  0  0  0
    1.6185    0.2589    2.7724 O   0  0  0  0  0  0  0  0  0  0  0  0
   -0.3137    0.1419    1.4018 C   0  0  0  0  0  0  0  0  0  0  0  0
   -1.1706    0.4462    2.4498 C   0  0  0  0  0  0  0  0  0  0  0  0
   -2.5290    0.4409    2.2999 C   0  0  0  0  0  0  0  0  0  0  0  0
   -3.1619    0.1287    1.0815 C   0  0  0  0  0  0  0  0  0  0  0  0
   -4.5578    0.1510    0.9890 N   0  0  0  0  0  0  0  0  0  0  0  0
   -5.3891   -0.3087   -0.0640 C   0  0  0  0  0  0  0  0  0  0  0  0
   -4.8581   -0.8138   -1.0671 O   0  0  0  0  0  0  0  0  0  0  0  0
   -6.7771   -0.1946    0.0271 N   0  0  0  0  0  0  0  0  0  0  0  0
   -7.7458   -0.5862   -0.8895 C   0  0  0  0  0  0  0  0  0  0  0  0
   -7.5091   -1.3686   -1.9966 C   0  0  0  0  0  0  0  0  0  0  0  0
   -8.5547   -1.7741   -2.8415 C   0  0  0  0  0  0  0  0  0  0  0  0
   -9.8583   -1.4184   -2.6152 C   0  0  0  0  0  0  0  0  0  0  0  0
  -10.0931   -0.6373   -1.5109 C   0  0  0  0  0  0  0  0  0  0  0  0
   -9.0919   -0.2268   -0.6711 C   0  0  0  0  0  0  0  0  0  0  0  0
   -9.3635    0.5772    0.4432 O   0  0  0  0  0  0  0  0  0  0  0  0
   -9.4062    1.9650    0.2441 C   0  0  0  0  0  0  0  0  0  0  0  0
   -8.2597    2.5278   -0.2442 F   0  0  0  0  0  0  0  0  0  0  0  0
  -10.4070    2.2622   -0.6916 F   0  0  0  0  0  0  0  0  0  0  0  0
   -9.6956    2.6386    1.4362 F   0  0  0  0  0  0  0  0  0  0  0  0
   -2.3018   -0.1692    0.0567 C   0  0  0  0  0  0  0  0  0  0  0  0
   -0.9029   -0.1653    0.2057 C   0  0  0  0  0  0  0  0  0  0  0  0
    8.3625   -2.0483   -0.0837 H   0  0  0  0  0  0  0  0  0  0  0  0
    9.6722   -1.6658   -1.2042 H   0  0  0  0  0  0  0  0  0  0  0  0
    8.0046   -1.3746   -1.7503 H   0  0  0  0  0  0  0  0  0  0  0  0
    9.7435    0.1092    0.2379 H   0  0  0  0  0  0  0  0  0  0  0  0
    7.9059    0.9798   -2.0242 H   0  0  0  0  0  0  0  0  0  0  0  0
    8.2678    2.0813   -0.6826 H   0  0  0  0  0  0  0  0  0  0  0  0
    9.6223    1.4030   -1.6792 H   0  0  0  0  0  0  0  0  0  0  0  0
    5.7537   -1.0079   -1.0084 H   0  0  0  0  0  0  0  0  0  0  0  0
    6.0378   -2.0039    0.4915 H   0  0  0  0  0  0  0  0  0  0  0  0
    3.8524   -2.0406    1.0038 H   0  0  0  0  0  0  0  0  0  0  0  0
    3.6068   -1.5091   -0.6911 H   0  0  0  0  0  0  0  0  0  0  0  0
    3.6274    0.1376    1.8155 H   0  0  0  0  0  0  0  0  0  0  0  0
    3.8463    2.1319    0.7954 H   0  0  0  0  0  0  0  0  0  0  0  0
    3.4196    1.4626   -0.8661 H   0  0  0  0  0  0  0  0  0  0  0  0
    5.9644    2.1487   -0.0185 H   0  0  0  0  0  0  0  0  0  0  0  0
    5.6002    0.8627   -1.2185 H   0  0  0  0  0  0  0  0  0  0  0  0
    1.6190   -0.0451   -0.4946 H   0  0  0  0  0  0  0  0  0  0  0  0
   -0.6845    0.6880    3.3951 H   0  0  0  0  0  0  0  0  0  0  0  0
   -3.1672    0.6814    3.1342 H   0  0  0  0  0  0  0  0  0  0  0  0
   -5.0614    0.5799    1.8361 H   0  0  0  0  0  0  0  0  0  0  0  0
   -7.1256    0.2371    0.9498 H   0  0  0  0  0  0  0  0  0  0  0  0
   -6.5023   -1.7071   -2.2516 H   0  0  0  0  0  0  0  0  0  0  0  0
   -8.2729   -2.3938   -3.6974 H   0  0  0  0  0  0  0  0  0  0  0  0
  -10.6317   -1.7517   -3.2889 H   0  0  0  0  0  0  0  0  0  0  0  0
  -11.1129   -0.3182   -1.2737 H   0  0  0  0  0  0  0  0  0  0  0  0
   -2.6484   -0.4139   -0.9140 H   0  0  0  0  0  0  0  0  0  0  0  0
   -0.3158   -0.4186   -0.6631 H   0  0  0  0  0  0  0  0  0  0  0  0
  1  2  1  0
  2  3  1  0
  2  4  1  0
  4  5  2  0
  4  6  2  0
  4  7  1  0
  7  8  1  0
  8  9  1  0
  9 10  1  0
 10 11  1  0
 11 12  1  0
 10 13  1  0
 13 14  1  0
 14 15  2  0
 14 16  1  0
 16 17  2  0
 17 18  1  0
 18 19  2  0
 19 20  1  0
 20 21  1  0
 21 22  2  0
 21 23  1  0
 23 24  1  0
 24 25  2  0
 25 26  1  0
 26 27  2  0
 27 28  1  0
 28 29  2  0
 29 30  1  0
 30 31  1  0
 31 32  1  0
 31 33  1  0
 31 34  1  0
 19 35  1  0
 35 36  2  0
 12  7  1  0
 36 16  1  0
 29 24  1  0
  1 37  1  0
  1 38  1  0
  1 39  1  0
  2 40  1  0
  3 41  1  0
  3 42  1  0
  3 43  1  0
  8 44  1  0
  8 45  1  0
  9 46  1  0
  9 47  1  0
 10 48  1  0
 11 49  1  0
 11 50  1  0
 12 51  1  0
 12 52  1  0
 13 53  1  0
 17 54  1  0
 18 55  1  0
 20 56  1  0
 23 57  1  0
 25 58  1  0
 26 59  1  0
 27 60  1  0
 28 61  1  0
 35 62  1  0
 36 63  1  0
M  END
$$$$
[H]OC(=O)C([H])([H])C([H])(c1c([H])c([H])c(Cl)c(Cl)c1[H])N(C([H])([H])c1c([H])c([H])c(OC([H])([H])C([H])([H])N2C(=O)C([H])([H])C([H])([H])C2=O)c(OC([H])([H])[H])c1[H])C([H])([H])C1([H])C([H])([H])C1([H])[H]
     RDKit          3D

 67 70  0  0  0  0  0  0  0  0999 V2000
    0.8046   -3.6245    1.1578 C   0  0  0  0  0  0  0  0  0  0  0  0
    1.8549   -2.7423    0.8339 O   0  0  0  0  0  0  0  0  0  0  0  0
    1.5596   -1.5266    0.2727 C   0  0  0  0  0  0  0  0  0  0  0  0
    0.2623   -1.1516    0.0024 C   0  0  0  0  0  0  0  0  0  0  0  0
   -0.0197    0.0719   -0.5604 C   0  0  0  0  0  0  0  0  0  0  0  0
   -1.3950    0.4955   -0.8821 C   0  0  0  0  0  0  0  0  0  0  0  0
   -2.4383    0.0495   -0.0806 N   0  0  0  0  0  0  0  0  0  0  0  0
   -3.7417    0.0833   -0.6926 C   0  0  0  0  0  0  0  0  0  0  0  0
   -4.2688    1.4328   -0.9842 C   0  0  0  0  0  0  0  0  0  0  0  0
   -3.7144    2.4432   -1.8696 C   0  0  0  0  0  0  0  0  0  0  0  0
   -4.9012    1.6298   -2.3502 C   0  0  0  0  0  0  0  0  0  0  0  0
   -2.4540    0.1142    1.3092 C   0  0  0  0  0  0  0  0  0  0  0  0
   -2.5511    1.4494    1.9265 C   0  0  0  0  0  0  0  0  0  0  0  0
   -1.5306    2.4568    1.6975 C   0  0  0  0  0  0  0  0  0  0  0  0
   -1.7563    3.6130    0.9726 O   0  0  0  0  0  0  0  0  0  0  0  0
   -0.3746    2.3059    2.1698 O   0  0  0  0  0  0  0  0  0  0  0  0
   -3.4544   -0.8088    1.9406 C   0  0  0  0  0  0  0  0  0  0  0  0
   -4.3994   -0.3358    2.8081 C   0  0  0  0  0  0  0  0  0  0  0  0
   -5.3335   -1.1792    3.4314 C   0  0  0  0  0  0  0  0  0  0  0  0
   -5.3074   -2.5308    3.1681 C   0  0  0  0  0  0  0  0  0  0  0  0
   -6.4496   -3.6472    3.9154 Cl  0  0  0  0  0  0  0  0  0  0  0  0
   -4.3428   -2.9768    2.2890 C   0  0  0  0  0  0  0  0  0  0  0  0
   -4.3123   -4.7086    1.9525 Cl  0  0  0  0  0  0  0  0  0  0  0  0
   -3.4235   -2.1589    1.6733 C   0  0  0  0  0  0  0  0  0  0  0  0
    1.0184    0.9171   -0.8490 C   0  0  0  0  0  0  0  0  0  0  0  0
    2.2978    0.5879   -0.6009 C   0  0  0  0  0  0  0  0  0  0  0  0
    2.6131   -0.6411   -0.0330 C   0  0  0  0  0  0  0  0  0  0  0  0
    3.8363   -0.9868    0.2185 O   0  0  0  0  0  0  0  0  0  0  0  0
    5.0943   -1.2012    0.4113 C   0  0  0  0  0  0  0  0  0  0  0  0
    6.0773   -1.2736   -0.7229 C   0  0  0  0  0  0  0  0  0  0  0  0
    6.1460   -0.0808   -1.5021 N   0  0  0  0  0  0  0  0  0  0  0  0
    6.9990    1.0263   -1.2091 C   0  0  0  0  0  0  0  0  0  0  0  0
    7.8915    1.0705   -0.2997 O   0  0  0  0  0  0  0  0  0  0  0  0
    6.7184    2.1568   -2.1144 C   0  0  0  0  0  0  0  0  0  0  0  0
    5.8912    1.5342   -3.1943 C   0  0  0  0  0  0  0  0  0  0  0  0
    5.4518    0.2313   -2.6879 C   0  0  0  0  0  0  0  0  0  0  0  0
    4.5784   -0.5398   -3.2054 O   0  0  0  0  0  0  0  0  0  0  0  0
    0.0455   -3.0982    1.7628 H   0  0  0  0  0  0  0  0  0  0  0  0
    1.1645   -4.4745    1.8023 H   0  0  0  0  0  0  0  0  0  0  0  0
    0.4126   -4.0623    0.2400 H   0  0  0  0  0  0  0  0  0  0  0  0
   -0.5178   -1.8622    0.2449 H   0  0  0  0  0  0  0  0  0  0  0  0
   -1.5528    0.2006   -1.9527 H   0  0  0  0  0  0  0  0  0  0  0  0
   -1.4336    1.6290   -0.9278 H   0  0  0  0  0  0  0  0  0  0  0  0
   -3.6455   -0.4664   -1.6572 H   0  0  0  0  0  0  0  0  0  0  0  0
   -4.4586   -0.4175   -0.0080 H   0  0  0  0  0  0  0  0  0  0  0  0
   -4.9654    1.8562   -0.1595 H   0  0  0  0  0  0  0  0  0  0  0  0
   -3.9078    3.5294   -1.6055 H   0  0  0  0  0  0  0  0  0  0  0  0
   -2.8639    2.3613   -2.5458 H   0  0  0  0  0  0  0  0  0  0  0  0
   -4.7344    0.8572   -3.1253 H   0  0  0  0  0  0  0  0  0  0  0  0
   -5.8231    2.2092   -2.4605 H   0  0  0  0  0  0  0  0  0  0  0  0
   -1.4657   -0.3143    1.7633 H   0  0  0  0  0  0  0  0  0  0  0  0
   -2.6504    1.3154    3.0864 H   0  0  0  0  0  0  0  0  0  0  0  0
   -3.5815    1.8909    1.7164 H   0  0  0  0  0  0  0  0  0  0  0  0
   -2.6694    3.9464    0.6940 H   0  0  0  0  0  0  0  0  0  0  0  0
   -4.5192    0.7065    3.0836 H   0  0  0  0  0  0  0  0  0  0  0  0
   -6.0751   -0.8013    4.1131 H   0  0  0  0  0  0  0  0  0  0  0  0
   -2.6824   -2.5589    0.9863 H   0  0  0  0  0  0  0  0  0  0  0  0
    0.8072    1.8934   -1.2937 H   0  0  0  0  0  0  0  0  0  0  0  0
    3.1178    1.2848   -0.8431 H   0  0  0  0  0  0  0  0  0  0  0  0
    5.5472   -0.4884    1.2061 H   0  0  0  0  0  0  0  0  0  0  0  0
    5.2289   -2.2173    0.9671 H   0  0  0  0  0  0  0  0  0  0  0  0
    5.8382   -2.1446   -1.3833 H   0  0  0  0  0  0  0  0  0  0  0  0
    7.1190   -1.4752   -0.3404 H   0  0  0  0  0  0  0  0  0  0  0  0
    6.1511    2.9823   -1.6241 H   0  0  0  0  0  0  0  0  0  0  0  0
    7.6916    2.5500   -2.5259 H   0  0  0  0  0  0  0  0  0  0  0  0
    6.5100    1.4411   -4.1102 H   0  0  0  0  0  0  0  0  0  0  0  0
    4.9867    2.1723   -3.4157 H   0  0  0  0  0  0  0  0  0  0  0  0
  1  2  1  0
  2  3  1  0
  3  4  2  0
  4  5  1  0
  5  6  1  0
  6  7  1  0
  7  8  1  0
  8  9  1  0
  9 10  1  0
 10 11  1  0
  7 12  1  0
 12 13  1  0
 13 14  1  0
 14 15  1  0
 14 16  2  0
 12 17  1  0
 17 18  2  0
 18 19  1  0
 19 20  2  0
 20 21  1  0
 20 22  1  0
 22 23  1  0
 22 24  2  0
  5 25  2  0
 25 26  1  0
 26 27  2  0
 27 28  1  0
 28 29  1  0
 29 30  1  0
 30 31  1  0
 31 32  1  0
 32 33  2  0
 32 34  1  0
 34 35  1  0
 35 36  1  0
 36 37  2  0
 27  3  1  0
 36 31  1  0
 11  9  1  0
 24 17  1  0
  1 38  1  0
  1 39  1  0
  1 40  1  0
  4 41  1  0
  6 42  1  0
  6 43  1  0
  8 44  1  0
  8 45  1  0
  9 46  1  0
 10 47  1  0
 10 48  1  0
 11 49  1  0
 11 50  1  0
 12 51  1  0
 13 52  1  0
 13 53  1  0
 15 54  1  0
 18 55  1  0
 19 56  1  0
 24 57  1  0
 25 58  1  0
 26 59  1  0
 29 60  1  0
 29 61  1  0
 30 62  1  0
 30 63  1  0
 34 64  1  0
 34 65  1  0
 35 66  1  0
 35 67  1  0
M  END
$$$$
[H]c1nc(N([H])c2c([H])c([H])c(N3C([H])([H])C([H])([H])C([H])(N4C([H])([H])C([H])([H])OC([H])([H])C4([H])[H])C([H])([H])C3([H])[H])c([H])c2OC([H])([H])[H])nc(N([H])c2c([H])c([H])c([H])c([H])c2S(=O)(=O)C([H])(C([H])([H])[H])C([H])([H])[H])c1Cl
     RDKit          3D

 78 82  0  0  0  0  0  0  0  0999 V2000
   -2.7990   -4.7366   -1.3510 C   0  0  0  0  0  0  0  0  0  0  0  0
   -1.4818   -4.2815   -1.0963 O   0  0  0  0  0  0  0  0  0  0  0  0
   -1.2626   -2.9268   -0.9115 C   0  0  0  0  0  0  0  0  0  0  0  0
   -2.2756   -1.9993   -0.9649 C   0  0  0  0  0  0  0  0  0  0  0  0
   -2.0617   -0.6368   -0.7804 C   0  0  0  0  0  0  0  0  0  0  0  0
   -0.7814   -0.2202   -0.5369 C   0  0  0  0  0  0  0  0  0  0  0  0
    0.2811   -1.1355   -0.4738 C   0  0  0  0  0  0  0  0  0  0  0  0
    0.0363   -2.4736   -0.6602 C   0  0  0  0  0  0  0  0  0  0  0  0
    1.0486   -3.4282   -0.5632 N   0  0  0  0  0  0  0  0  0  0  0  0
    2.4501   -3.2971   -0.5441 C   0  0  0  0  0  0  0  0  0  0  0  0
    3.1806   -4.4584   -0.3853 N   0  0  0  0  0  0  0  0  0  0  0  0
    4.4963   -4.5095   -0.3751 C   0  0  0  0  0  0  0  0  0  0  0  0
    5.2173   -3.3469   -0.5311 C   0  0  0  0  0  0  0  0  0  0  0  0
    6.9576   -3.3296   -0.5341 Cl  0  0  0  0  0  0  0  0  0  0  0  0
    4.5356   -2.1282   -0.6989 C   0  0  0  0  0  0  0  0  0  0  0  0
    5.3043   -0.9689   -0.8278 N   0  0  0  0  0  0  0  0  0  0  0  0
    4.9428    0.3708   -1.0715 C   0  0  0  0  0  0  0  0  0  0  0  0
    3.7071    0.7399   -1.5352 C   0  0  0  0  0  0  0  0  0  0  0  0
    3.4274    2.0598   -1.8188 C   0  0  0  0  0  0  0  0  0  0  0  0
    4.3635    3.0489   -1.6512 C   0  0  0  0  0  0  0  0  0  0  0  0
    5.6208    2.6944   -1.1820 C   0  0  0  0  0  0  0  0  0  0  0  0
    5.9101    1.3798   -0.8961 C   0  0  0  0  0  0  0  0  0  0  0  0
    7.5019    1.0371   -0.2945 S   0  0  0  0  0  0  0  0  0  0  0  0
    8.2978    0.1131   -1.1647 O   0  0  0  0  0  0  0  0  0  0  0  0
    8.2966    2.3490   -0.2987 O   0  0  0  0  0  0  0  0  0  0  0  0
    7.4681    0.4327    1.3549 C   0  0  0  0  0  0  0  0  0  0  0  0
    8.8634   -0.1388    1.7159 C   0  0  0  0  0  0  0  0  0  0  0  0
    7.0596    1.4683    2.3670 C   0  0  0  0  0  0  0  0  0  0  0  0
    3.1822   -2.2006   -0.6916 N   0  0  0  0  0  0  0  0  0  0  0  0
   -3.1115    0.3177   -0.8518 N   0  0  0  0  0  0  0  0  0  0  0  0
   -4.3569    0.0033   -1.5564 C   0  0  0  0  0  0  0  0  0  0  0  0
   -5.4456    0.9770   -1.1084 C   0  0  0  0  0  0  0  0  0  0  0  0
   -5.4163    1.0960    0.3875 C   0  0  0  0  0  0  0  0  0  0  0  0
   -4.1724    1.8834    0.7406 C   0  0  0  0  0  0  0  0  0  0  0  0
   -3.0537    1.6221   -0.2518 C   0  0  0  0  0  0  0  0  0  0  0  0
   -6.5566    1.8175    0.8825 N   0  0  0  0  0  0  0  0  0  0  0  0
   -6.4174    2.0469    2.3263 C   0  0  0  0  0  0  0  0  0  0  0  0
   -7.6213    2.8766    2.7374 C   0  0  0  0  0  0  0  0  0  0  0  0
   -8.8104    2.1862    2.5319 O   0  0  0  0  0  0  0  0  0  0  0  0
   -8.9221    1.9916    1.1601 C   0  0  0  0  0  0  0  0  0  0  0  0
   -7.7951    1.0731    0.7374 C   0  0  0  0  0  0  0  0  0  0  0  0
   -2.8361   -5.8616   -1.3099 H   0  0  0  0  0  0  0  0  0  0  0  0
   -3.1900   -4.3824   -2.3292 H   0  0  0  0  0  0  0  0  0  0  0  0
   -3.5377   -4.4041   -0.5867 H   0  0  0  0  0  0  0  0  0  0  0  0
   -3.2912   -2.3704   -1.1607 H   0  0  0  0  0  0  0  0  0  0  0  0
   -0.5304    0.8148   -0.3940 H   0  0  0  0  0  0  0  0  0  0  0  0
    1.2667   -0.7437   -0.2556 H   0  0  0  0  0  0  0  0  0  0  0  0
    0.7052   -4.4618   -0.4798 H   0  0  0  0  0  0  0  0  0  0  0  0
    5.0715   -5.4367   -0.2489 H   0  0  0  0  0  0  0  0  0  0  0  0
    6.3584   -1.1165   -0.7423 H   0  0  0  0  0  0  0  0  0  0  0  0
    2.9114   -0.0041   -1.7193 H   0  0  0  0  0  0  0  0  0  0  0  0
    2.4405    2.3544   -2.1905 H   0  0  0  0  0  0  0  0  0  0  0  0
    4.1803    4.0991   -1.8612 H   0  0  0  0  0  0  0  0  0  0  0  0
    6.3509    3.4879   -1.0554 H   0  0  0  0  0  0  0  0  0  0  0  0
    6.8109   -0.4447    1.4204 H   0  0  0  0  0  0  0  0  0  0  0  0
    8.9078   -1.1290    1.2165 H   0  0  0  0  0  0  0  0  0  0  0  0
    8.8703   -0.2948    2.7926 H   0  0  0  0  0  0  0  0  0  0  0  0
    9.6590    0.5303    1.3215 H   0  0  0  0  0  0  0  0  0  0  0  0
    6.3760    2.2282    1.9706 H   0  0  0  0  0  0  0  0  0  0  0  0
    8.0149    1.9242    2.7543 H   0  0  0  0  0  0  0  0  0  0  0  0
    6.5683    1.0168    3.2596 H   0  0  0  0  0  0  0  0  0  0  0  0
   -4.2295    0.1961   -2.6622 H   0  0  0  0  0  0  0  0  0  0  0  0
   -4.6789   -1.0320   -1.4555 H   0  0  0  0  0  0  0  0  0  0  0  0
   -6.3764    0.6017   -1.5329 H   0  0  0  0  0  0  0  0  0  0  0  0
   -5.2359    1.9773   -1.5346 H   0  0  0  0  0  0  0  0  0  0  0  0
   -5.4040    0.1109    0.8986 H   0  0  0  0  0  0  0  0  0  0  0  0
   -4.4001    2.9747    0.6779 H   0  0  0  0  0  0  0  0  0  0  0  0
   -3.8424    1.6927    1.7865 H   0  0  0  0  0  0  0  0  0  0  0  0
   -3.1634    2.3692   -1.0913 H   0  0  0  0  0  0  0  0  0  0  0  0
   -2.0806    1.8030    0.1914 H   0  0  0  0  0  0  0  0  0  0  0  0
   -6.4486    1.0642    2.8141 H   0  0  0  0  0  0  0  0  0  0  0  0
   -5.5199    2.6190    2.5767 H   0  0  0  0  0  0  0  0  0  0  0  0
   -7.6190    3.7806    2.0982 H   0  0  0  0  0  0  0  0  0  0  0  0
   -7.5723    3.1645    3.7921 H   0  0  0  0  0  0  0  0  0  0  0  0
   -8.6856    2.9938    0.6972 H   0  0  0  0  0  0  0  0  0  0  0  0
   -9.9176    1.6194    0.8580 H   0  0  0  0  0  0  0  0  0  0  0  0
   -7.9512    0.6460   -0.2539 H   0  0  0  0  0  0  0  0  0  0  0  0
   -7.7886    0.2449    1.4991 H   0  0  0  0  0  0  0  0  0  0  0  0
  1  2  1  0
  2  3  1  0
  3  4  2  0
  4  5  1  0
  5  6  2  0
  6  7  1  0
  7  8  2  0
  8  9  1  0
  9 10  1  0
 10 11  2  0
 11 12  1  0
 12 13  2  0
 13 14  1  0
 13 15  1  0
 15 16  1  0
 16 17  1  0
 17 18  2  0
 18 19  1  0
 19 20  2  0
 20 21  1  0
 21 22  2  0
 22 23  1  0
 23 24  2  0
 23 25  2  0
 23 26  1  0
 26 27  1  0
 26 28  1  0
 15 29  2  0
  5 30  1  0
 30 31  1  0
 31 32  1  0
 32 33  1  0
 33 34  1  0
 34 35  1  0
 33 36  1  0
 36 37  1  0
 37 38  1  0
 38 39  1  0
 39 40  1  0
 40 41  1  0
  8  3  1  0
 29 10  1  0
 35 30  1  0
 41 36  1  0
 22 17  1  0
  1 42  1  0
  1 43  1  0
  1 44  1  0
  4 45  1  0
  6 46  1  0
  7 47  1  0
  9 48  1  0
 12 49  1  0
 16 50  1  0
 18 51  1  0
 19 52  1  0
 20 53  1  0
 21 54  1  0
 26 55  1  0
 27 56  1  0
 27 57  1  0
 27 58  1  0
 28 59  1  0
 28 60  1  0
 28 61  1  0
 31 62  1  0
 31 63  1  0
 32 64  1  0
 32 65  1  0
 33 66  1  0
 34 67  1  0
 34 68  1  0
 35 69  1  0
 35 70  1  0
 37 71  1  0
 37 72  1  0
 38 73  1  0
 38 74  1  0
 40 75  1  0
 40 76  1  0
 41 77  1  0
 41 78  1  0
M  END
$$$$
[H]OC(=O)[C@@]([H])(N([H])C(=O)[C@@]([H])(N([H])C(=O)[C@@]([H])(N([H])[H])C([H])([H])c1c([H])c([H])c([H])c([H])c1[H])C([H])([H])C([H])(C([H])([H])[H])C([H])([H])[H])C([H])([H])C([H])(C([H])([H])[H])C([H])([H])[H]
     RDKit          3D

 61 61  0  0  0  0  0  0  0  0999 V2000
   -5.4834   -3.0278    0.5110 C   0  0  0  0  0  0  0  0  0  0  0  0
   -4.0240   -3.0588    0.8589 C   0  0  0  0  0  0  0  0  0  0  0  0
   -3.3465   -4.2473    0.1888 C   0  0  0  0  0  0  0  0  0  0  0  0
   -3.2647   -1.8192    0.7844 C   0  0  0  0  0  0  0  0  0  0  0  0
   -3.0658   -1.0448   -0.4507 C   0  0  2  0  0  0  0  0  0  0  0  0
   -2.2147    0.1096    0.0161 N   0  0  0  0  0  0  0  0  0  0  0  0
   -0.9463    0.3540   -0.5322 C   0  0  0  0  0  0  0  0  0  0  0  0
   -0.5143   -0.4149   -1.4392 O   0  0  0  0  0  0  0  0  0  0  0  0
   -0.1494    1.5164   -0.0247 C   0  0  2  0  0  0  0  0  0  0  0  0
   -0.9566    2.7658   -0.2525 C   0  0  0  0  0  0  0  0  0  0  0  0
   -0.3461    4.0397    0.1859 C   0  0  0  0  0  0  0  0  0  0  0  0
   -0.0303    4.0936    1.6624 C   0  0  0  0  0  0  0  0  0  0  0  0
    0.8359    4.5097   -0.6088 C   0  0  0  0  0  0  0  0  0  0  0  0
    1.1021    1.5152   -0.7548 N   0  0  0  0  0  0  0  0  0  0  0  0
    2.3512    1.4088   -0.1084 C   0  0  0  0  0  0  0  0  0  0  0  0
    2.3748    1.3078    1.1431 O   0  0  0  0  0  0  0  0  0  0  0  0
    3.6465    1.4144   -0.8279 C   0  0  1  0  0  0  0  0  0  0  0  0
    4.7556    1.5796    0.1221 N   0  0  0  0  0  0  0  0  0  0  0  0
    3.9240    0.0875   -1.5175 C   0  0  0  0  0  0  0  0  0  0  0  0
    4.0076   -1.0475   -0.6049 C   0  0  0  0  0  0  0  0  0  0  0  0
    2.9338   -1.8191   -0.2662 C   0  0  0  0  0  0  0  0  0  0  0  0
    3.0128   -2.8949    0.5989 C   0  0  0  0  0  0  0  0  0  0  0  0
    4.2313   -3.2032    1.1451 C   0  0  0  0  0  0  0  0  0  0  0  0
    5.3528   -2.4658    0.8453 C   0  0  0  0  0  0  0  0  0  0  0  0
    5.2300   -1.4018   -0.0215 C   0  0  0  0  0  0  0  0  0  0  0  0
   -4.2040   -0.3961   -1.0896 C   0  0  0  0  0  0  0  0  0  0  0  0
   -4.3942    0.8377   -0.9829 O   0  0  0  0  0  0  0  0  0  0  0  0
   -5.1177   -1.0889   -1.8418 O   0  0  0  0  0  0  0  0  0  0  0  0
   -5.6035   -3.4937   -0.5000 H   0  0  0  0  0  0  0  0  0  0  0  0
   -5.9725   -2.0619    0.6363 H   0  0  0  0  0  0  0  0  0  0  0  0
   -6.0737   -3.7046    1.2328 H   0  0  0  0  0  0  0  0  0  0  0  0
   -4.0103   -3.3658    1.9639 H   0  0  0  0  0  0  0  0  0  0  0  0
   -2.8734   -3.9964   -0.7683 H   0  0  0  0  0  0  0  0  0  0  0  0
   -4.1446   -4.9901   -0.0199 H   0  0  0  0  0  0  0  0  0  0  0  0
   -2.6074   -4.7239    0.8548 H   0  0  0  0  0  0  0  0  0  0  0  0
   -3.6841   -1.0750    1.5501 H   0  0  0  0  0  0  0  0  0  0  0  0
   -2.2226   -1.9853    1.2153 H   0  0  0  0  0  0  0  0  0  0  0  0
   -2.3906   -1.5528   -1.1948 H   0  0  0  0  0  0  0  0  0  0  0  0
   -2.6636    0.6766    0.7605 H   0  0  0  0  0  0  0  0  0  0  0  0
    0.0816    1.3319    1.0256 H   0  0  0  0  0  0  0  0  0  0  0  0
   -1.1384    2.8318   -1.3574 H   0  0  0  0  0  0  0  0  0  0  0  0
   -1.9619    2.6201    0.1887 H   0  0  0  0  0  0  0  0  0  0  0  0
   -1.1559    4.8304    0.0513 H   0  0  0  0  0  0  0  0  0  0  0  0
   -0.0381    5.1631    1.9605 H   0  0  0  0  0  0  0  0  0  0  0  0
   -0.8173    3.5889    2.2521 H   0  0  0  0  0  0  0  0  0  0  0  0
    0.9890    3.7303    1.8879 H   0  0  0  0  0  0  0  0  0  0  0  0
    1.7823    4.4812   -0.0270 H   0  0  0  0  0  0  0  0  0  0  0  0
    0.8713    3.9589   -1.5633 H   0  0  0  0  0  0  0  0  0  0  0  0
    0.6741    5.5885   -0.9112 H   0  0  0  0  0  0  0  0  0  0  0  0
    1.1255    1.5927   -1.8018 H   0  0  0  0  0  0  0  0  0  0  0  0
    3.6544    2.2584   -1.5360 H   0  0  0  0  0  0  0  0  0  0  0  0
    4.4736    1.3996    1.0931 H   0  0  0  0  0  0  0  0  0  0  0  0
    5.1982    2.5146   -0.0363 H   0  0  0  0  0  0  0  0  0  0  0  0
    3.1555   -0.0504   -2.3222 H   0  0  0  0  0  0  0  0  0  0  0  0
    4.8931    0.2282   -2.0607 H   0  0  0  0  0  0  0  0  0  0  0  0
    1.9681   -1.5950   -0.6863 H   0  0  0  0  0  0  0  0  0  0  0  0
    2.1291   -3.4742    0.8335 H   0  0  0  0  0  0  0  0  0  0  0  0
    4.2694   -4.0638    1.8304 H   0  0  0  0  0  0  0  0  0  0  0  0
    6.2840   -2.7568    1.3064 H   0  0  0  0  0  0  0  0  0  0  0  0
    6.0916   -0.8047   -0.2759 H   0  0  0  0  0  0  0  0  0  0  0  0
   -5.9835   -0.7109   -2.2002 H   0  0  0  0  0  0  0  0  0  0  0  0
  1  2  1  0
  2  3  1  0
  2  4  1  0
  4  5  1  0
  5  6  1  0
  6  7  1  0
  7  8  2  0
  7  9  1  0
  9 10  1  0
 10 11  1  0
 11 12  1  0
 11 13  1  0
  9 14  1  0
 14 15  1  0
 15 16  2  0
 15 17  1  0
 17 18  1  0
 17 19  1  0
 19 20  1  0
 20 21  2  0
 21 22  1  0
 22 23  2  0
 23 24  1  0
 24 25  2  0
  5 26  1  0
 26 27  2  0
 26 28  1  0
 25 20  1  0
  1 29  1  0
  1 30  1  0
  1 31  1  0
  2 32  1  0
  3 33  1  0
  3 34  1  0
  3 35  1  0
  4 36  1  0
  4 37  1  0
  5 38  1  6
  6 39  1  0
  9 40  1  1
 10 41  1  0
 10 42  1  0
 11 43  1  0
 12 44  1  0
 12 45  1  0
 12 46  1  0
 13 47  1  0
 13 48  1  0
 13 49  1  0
 14 50  1  0
 17 51  1  6
 18 52  1  0
 18 53  1  0
 19 54  1  0
 19 55  1  0
 21 56  1  0
 22 57  1  0
 23 58  1  0
 24 59  1  0
 25 60  1  0
 28 61  1  0
M  END
$$$$
[H]c1c([H])c([H])c2c(c1[H])c1c3c(c4c5c([H])c([H])c([H])c([H])c5n5c4c1n2[C@@]1(C([H])([H])[H])O[C@]5([H])C([H])([H])[C@@]([H])(N([H])C([H])([H])[H])[C@@]1([H])OC([H])([H])[H])C(=O)N([H])C3([H])[H]
     RDKit          3D

 61 68  0  0  0  0  0  0  0  0999 V2000
   -3.3415   -2.0929    0.8927 C   0  0  0  0  0  0  0  0  0  0  0  0
   -2.7520   -0.8244    0.5060 N   0  0  0  0  0  0  0  0  0  0  0  0
   -2.5947   -0.7699   -0.9652 C   0  0  2  0  0  0  0  0  0  0  0  0
   -1.6635   -1.8336   -1.3456 C   0  0  0  0  0  0  0  0  0  0  0  0
   -0.4098   -1.3263   -1.9401 C   0  0  1  0  0  0  0  0  0  0  0  0
   -0.2904   -0.0961   -2.3609 O   0  0  0  0  0  0  0  0  0  0  0  0
   -0.9141    0.9817   -1.7381 C   0  0  1  0  0  0  0  0  0  0  0  0
   -0.8729    2.0231   -2.8643 C   0  0  0  0  0  0  0  0  0  0  0  0
   -2.2914    0.6326   -1.4119 C   0  0  2  0  0  0  0  0  0  0  0  0
   -2.9229    1.4324   -0.4622 O   0  0  0  0  0  0  0  0  0  0  0  0
   -4.0664    2.0564   -0.9455 C   0  0  0  0  0  0  0  0  0  0  0  0
   -0.0747    1.3904   -0.5981 N   0  0  0  0  0  0  0  0  0  0  0  0
    0.0066    2.5943   -0.0347 C   0  0  0  0  0  0  0  0  0  0  0  0
   -0.6403    3.7755   -0.2701 C   0  0  0  0  0  0  0  0  0  0  0  0
   -0.3753    4.9057    0.4704 C   0  0  0  0  0  0  0  0  0  0  0  0
    0.5715    4.8915    1.4994 C   0  0  0  0  0  0  0  0  0  0  0  0
    1.2169    3.7192    1.7374 C   0  0  0  0  0  0  0  0  0  0  0  0
    0.9447    2.6014    0.9941 C   0  0  0  0  0  0  0  0  0  0  0  0
    1.4533    1.3308    1.0530 C   0  0  0  0  0  0  0  0  0  0  0  0
    2.4134    0.7192    1.8621 C   0  0  0  0  0  0  0  0  0  0  0  0
    3.2252    1.2814    2.9656 C   0  0  0  0  0  0  0  0  0  0  0  0
    4.0513    0.2282    3.4563 N   0  0  0  0  0  0  0  0  0  0  0  0
    3.7725   -0.9500    2.6928 C   0  0  0  0  0  0  0  0  0  0  0  0
    4.3602   -2.0093    2.9202 O   0  0  0  0  0  0  0  0  0  0  0  0
    2.7553   -0.6238    1.7110 C   0  0  0  0  0  0  0  0  0  0  0  0
    2.1006   -1.3257    0.7242 C   0  0  0  0  0  0  0  0  0  0  0  0
    2.1422   -2.6347    0.2794 C   0  0  0  0  0  0  0  0  0  0  0  0
    2.8759   -3.7217    0.6638 C   0  0  0  0  0  0  0  0  0  0  0  0
    2.6892   -4.9254    0.0128 C   0  0  0  0  0  0  0  0  0  0  0  0
    1.7808   -5.0386   -1.0084 C   0  0  0  0  0  0  0  0  0  0  0  0
    1.0343   -3.9515   -1.4066 C   0  0  0  0  0  0  0  0  0  0  0  0
    1.2263   -2.7646   -0.7562 C   0  0  0  0  0  0  0  0  0  0  0  0
    0.6469   -1.5975   -0.9447 N   0  0  0  0  0  0  0  0  0  0  0  0
    1.1358   -0.7009   -0.0851 C   0  0  0  0  0  0  0  0  0  0  0  0
    0.8119    0.6350    0.0794 C   0  0  0  0  0  0  0  0  0  0  0  0
   -3.9345   -1.8764    1.8249 H   0  0  0  0  0  0  0  0  0  0  0  0
   -2.5804   -2.8202    1.1896 H   0  0  0  0  0  0  0  0  0  0  0  0
   -4.0376   -2.4413    0.1071 H   0  0  0  0  0  0  0  0  0  0  0  0
   -1.8252   -0.7857    0.9817 H   0  0  0  0  0  0  0  0  0  0  0  0
   -3.6418   -1.0758   -1.3069 H   0  0  0  0  0  0  0  0  0  0  0  0
   -1.4743   -2.5407   -0.4944 H   0  0  0  0  0  0  0  0  0  0  0  0
   -2.1827   -2.5069   -2.1019 H   0  0  0  0  0  0  0  0  0  0  0  0
   -0.1764   -2.0147   -2.8352 H   0  0  0  0  0  0  0  0  0  0  0  0
   -1.8561    2.5173   -2.9808 H   0  0  0  0  0  0  0  0  0  0  0  0
   -0.0367    2.7359   -2.7018 H   0  0  0  0  0  0  0  0  0  0  0  0
   -0.6761    1.5932   -3.8662 H   0  0  0  0  0  0  0  0  0  0  0  0
   -2.9127    0.7625   -2.3525 H   0  0  0  0  0  0  0  0  0  0  0  0
   -4.5472    2.6842   -0.1440 H   0  0  0  0  0  0  0  0  0  0  0  0
   -3.8494    2.7776   -1.7563 H   0  0  0  0  0  0  0  0  0  0  0  0
   -4.7942    1.3294   -1.3803 H   0  0  0  0  0  0  0  0  0  0  0  0
   -1.3647    3.8112   -1.0348 H   0  0  0  0  0  0  0  0  0  0  0  0
   -0.8845    5.8355    0.2847 H   0  0  0  0  0  0  0  0  0  0  0  0
    0.7949    5.7654    2.0918 H   0  0  0  0  0  0  0  0  0  0  0  0
    1.9682    3.6487    2.5304 H   0  0  0  0  0  0  0  0  0  0  0  0
    3.8868    2.0907    2.5395 H   0  0  0  0  0  0  0  0  0  0  0  0
    2.5967    1.6993    3.7873 H   0  0  0  0  0  0  0  0  0  0  0  0
    4.7363    0.3270    4.2421 H   0  0  0  0  0  0  0  0  0  0  0  0
    3.5871   -3.7061    1.4353 H   0  0  0  0  0  0  0  0  0  0  0  0
    3.2659   -5.8106    0.3031 H   0  0  0  0  0  0  0  0  0  0  0  0
    1.6292   -5.9934   -1.5280 H   0  0  0  0  0  0  0  0  0  0  0  0
    0.3048   -4.0175   -2.2172 H   0  0  0  0  0  0  0  0  0  0  0  0
  1  2  1  0
  2  3  1  0
  3  4  1  0
  4  5  1  0
  5  6  1  0
  6  7  1  0
  7  8  1  6
  7  9  1  0
  9 10  1  0
 10 11  1  0
  7 12  1  0
 12 13  1  0
 13 14  2  0
 14 15  1  0
 15 16  2  0
 16 17  1  0
 17 18  2  0
 18 19  1  0
 19 20  2  0
 20 21  1  0
 21 22  1  0
 22 23  1  0
 23 24  2  0
 23 25  1  0
 25 26  2  0
 26 27  1  0
 27 28  2  0
 28 29  1  0
 29 30  2  0
 30 31  1  0
 31 32  2  0
 32 33  1  0
 33 34  1  0
 34 35  2  0
  9  3  1  0
 35 12  1  0
 33  5  1  0
 18 13  1  0
 35 19  1  0
 25 20  1  0
 34 26  1  0
 32 27  1  0
  1 36  1  0
  1 37  1  0
  1 38  1  0
  2 39  1  0
  3 40  1  6
  4 41  1  0
  4 42  1  0
  5 43  1  6
  8 44  1  0
  8 45  1  0
  8 46  1  0
  9 47  1  6
 11 48  1  0
 11 49  1  0
 11 50  1  0
 14 51  1  0
 15 52  1  0
 16 53  1  0
 17 54  1  0
 21 55  1  0
 21 56  1  0
 22 57  1  0
 28 58  1  0
 29 59  1  0
 30 60  1  0
 31 61  1  0
M  END
$$$$
[H]c1c([H])c(C(F)(F)F)c(C#N)c([H])c1-c1c([H])c(C(=O)N2C([H])([H])N(c3c([H])c([H])c4c(c3[H])C([H])([H])OC4([H])[H])C([H])([H])C2([H])[H])c([H])c(C(F)(F)F)c1[H]
     RDKit          3D

 57 61  0  0  0  0  0  0  0  0999 V2000
   -1.8355    4.5870   -1.0007 F   0  0  0  0  0  0  0  0  0  0  0  0
   -2.3653    3.5335   -1.6814 C   0  0  0  0  0  0  0  0  0  0  0  0
   -1.6569    3.2247   -2.8281 F   0  0  0  0  0  0  0  0  0  0  0  0
   -2.4436    2.3000   -0.8525 C   0  0  0  0  0  0  0  0  0  0  0  0
   -3.6228    1.7307   -0.4931 C   0  0  0  0  0  0  0  0  0  0  0  0
   -3.6866    0.5576    0.2707 C   0  0  0  0  0  0  0  0  0  0  0  0
   -4.9962   -0.0038    0.5647 C   0  0  0  0  0  0  0  0  0  0  0  0
   -6.0383    0.1442   -0.3645 C   0  0  0  0  0  0  0  0  0  0  0  0
   -7.2921   -0.3617   -0.1663 C   0  0  0  0  0  0  0  0  0  0  0  0
   -8.3475   -0.1987   -1.1427 C   0  0  0  0  0  0  0  0  0  0  0  0
   -9.1818   -0.0589   -1.9433 N   0  0  0  0  0  0  0  0  0  0  0  0
   -7.5895   -1.0611    0.9940 C   0  0  0  0  0  0  0  0  0  0  0  0
   -8.9526   -1.6232    1.2236 C   0  0  0  0  0  0  0  0  0  0  0  0
   -9.9025   -0.5874    1.2198 F   0  0  0  0  0  0  0  0  0  0  0  0
   -9.2940   -2.6061    0.3377 F   0  0  0  0  0  0  0  0  0  0  0  0
   -8.9716   -2.1581    2.4960 F   0  0  0  0  0  0  0  0  0  0  0  0
   -6.5820   -1.2208    1.9227 C   0  0  0  0  0  0  0  0  0  0  0  0
   -5.2977   -0.6932    1.7039 C   0  0  0  0  0  0  0  0  0  0  0  0
   -2.4931    0.0002    0.6459 C   0  0  0  0  0  0  0  0  0  0  0  0
   -1.2506    0.5298    0.3106 C   0  0  0  0  0  0  0  0  0  0  0  0
   -0.0636   -0.1351    0.8532 C   0  0  0  0  0  0  0  0  0  0  0  0
    1.2300   -0.0381    0.3124 N   0  0  0  0  0  0  0  0  0  0  0  0
    1.6419    0.6201   -0.8833 C   0  0  0  0  0  0  0  0  0  0  0  0
    2.7119   -0.3850   -1.3972 C   0  0  0  0  0  0  0  0  0  0  0  0
    3.4126   -0.5813   -0.1125 N   0  0  0  0  0  0  0  0  0  0  0  0
    4.8071   -0.7438   -0.0836 C   0  0  0  0  0  0  0  0  0  0  0  0
    5.3316   -1.9975   -0.3075 C   0  0  0  0  0  0  0  0  0  0  0  0
    6.7074   -2.1888   -0.3386 C   0  0  0  0  0  0  0  0  0  0  0  0
    7.5814   -1.1326   -0.1467 C   0  0  0  0  0  0  0  0  0  0  0  0
    7.0574    0.1218    0.0780 C   0  0  0  0  0  0  0  0  0  0  0  0
    5.7057    0.3016    0.1080 C   0  0  0  0  0  0  0  0  0  0  0  0
    8.2171    1.0379    0.2351 C   0  0  0  0  0  0  0  0  0  0  0  0
    9.3147    0.3530   -0.2896 O   0  0  0  0  0  0  0  0  0  0  0  0
    9.0529   -0.9936   -0.1329 C   0  0  0  0  0  0  0  0  0  0  0  0
    2.4463   -0.5643    0.9425 C   0  0  0  0  0  0  0  0  0  0  0  0
   -0.1859   -0.8735    1.8922 O   0  0  0  0  0  0  0  0  0  0  0  0
   -1.2554    1.6719   -0.4304 C   0  0  0  0  0  0  0  0  0  0  0  0
   -3.6552    3.8358   -2.0820 F   0  0  0  0  0  0  0  0  0  0  0  0
   -4.5350    2.1828   -0.7886 H   0  0  0  0  0  0  0  0  0  0  0  0
   -5.7973    0.6947   -1.2751 H   0  0  0  0  0  0  0  0  0  0  0  0
   -6.7828   -1.7576    2.8180 H   0  0  0  0  0  0  0  0  0  0  0  0
   -4.5228   -0.8245    2.4385 H   0  0  0  0  0  0  0  0  0  0  0  0
   -2.5230   -0.9133    1.2413 H   0  0  0  0  0  0  0  0  0  0  0  0
    2.1373    1.5830   -0.7596 H   0  0  0  0  0  0  0  0  0  0  0  0
    0.8548    0.6405   -1.6898 H   0  0  0  0  0  0  0  0  0  0  0  0
    2.2255   -1.3313   -1.6754 H   0  0  0  0  0  0  0  0  0  0  0  0
    3.3327    0.0927   -2.1531 H   0  0  0  0  0  0  0  0  0  0  0  0
    4.7166   -2.8767   -0.4678 H   0  0  0  0  0  0  0  0  0  0  0  0
    7.1527   -3.1526   -0.5113 H   0  0  0  0  0  0  0  0  0  0  0  0
    5.2870    1.2667    0.2802 H   0  0  0  0  0  0  0  0  0  0  0  0
    8.0938    1.9557   -0.3813 H   0  0  0  0  0  0  0  0  0  0  0  0
    8.3866    1.3522    1.2824 H   0  0  0  0  0  0  0  0  0  0  0  0
    9.4985   -1.4042    0.7868 H   0  0  0  0  0  0  0  0  0  0  0  0
    9.4994   -1.5208   -1.0274 H   0  0  0  0  0  0  0  0  0  0  0  0
    2.7383    0.1174    1.7798 H   0  0  0  0  0  0  0  0  0  0  0  0
    2.3170   -1.5708    1.3589 H   0  0  0  0  0  0  0  0  0  0  0  0
   -0.3369    2.1796   -0.6909 H   0  0  0  0  0  0  0  0  0  0  0  0
  1  2  1  0
  2  3  1  0
  2  4  1  0
  4  5  2  0
  5  6  1  0
  6  7  1  0
  7  8  2  0
  8  9  1  0
  9 10  1  0
 10 11  3  0
  9 12  2  0
 12 13  1  0
 13 14  1  0
 13 15  1  0
 13 16  1  0
 12 17  1  0
 17 18  2  0
  6 19  2  0
 19 20  1  0
 20 21  1  0
 21 22  1  0
 22 23  1  0
 23 24  1  0
 24 25  1  0
 25 26  1  0
 26 27  2  0
 27 28  1  0
 28 29  2  0
 29 30  1  0
 30 31  2  0
 30 32  1  0
 32 33  1  0
 33 34  1  0
 25 35  1  0
 21 36  2  0
 20 37  2  0
  2 38  1  0
 37  4  1  0
 18  7  1  0
 35 22  1  0
 31 26  1  0
 34 29  1  0
  5 39  1  0
  8 40  1  0
 17 41  1  0
 18 42  1  0
 19 43  1  0
 23 44  1  0
 23 45  1  0
 24 46  1  0
 24 47  1  0
 27 48  1  0
 28 49  1  0
 31 50  1  0
 32 51  1  0
 32 52  1  0
 34 53  1  0
 34 54  1  0
 35 55  1  0
 35 56  1  0
 37 57  1  0
M  END
$$$$
[H]OC(=O)[C@@]([H])(N([H])C(=O)[C@@]([H])(N([H])C(=O)[C@@]([H])(N([H])C(=O)[C@@]([H])(N([H])C(=O)[C@@]([H])(N([H])C(=O)[C@@]([H])(N([H])C(=O)C([H])([H])[H])C([H])(C([H])([H])[H])C([H])([H])[H])C([H])([H])c1c([H])n([H])c2c([H])c([H])c([H])c([H])c12)C([H])([H])C([H])(C([H])([H])[H])C([H])([H])[H])C([H])([H])c1c([H])c([H])c([H])c([H])c1[H])C([H])([H])C([H])(C([H])([H])[H])C([H])([H])[H])C([H])([H])C([H])(C([H])([H])[H])C([H])([H])[H]
     RDKit          3D

125127  0  0  0  0  0  0  0  0999 V2000
    8.3812    1.7253    2.8336 C   0  0  0  0  0  0  0  0  0  0  0  0
    8.9523    0.3215    2.8750 C   0  0  0  0  0  0  0  0  0  0  0  0
   10.3308    0.1466    2.3941 C   0  0  0  0  0  0  0  0  0  0  0  0
    7.9489   -0.6309    2.3450 C   0  0  0  0  0  0  0  0  0  0  0  0
    7.4406   -0.3692    0.9840 C   0  0  2  0  0  0  0  0  0  0  0  0
    6.4032   -1.4486    0.7033 N   0  0  0  0  0  0  0  0  0  0  0  0
    5.1013   -1.0735    0.5312 C   0  0  0  0  0  0  0  0  0  0  0  0
    4.8883    0.2337    0.6370 O   0  0  0  0  0  0  0  0  0  0  0  0
    3.8495   -1.8246    0.2516 C   0  0  2  0  0  0  0  0  0  0  0  0
    3.9088   -2.7373   -0.9143 C   0  0  0  0  0  0  0  0  0  0  0  0
    4.9021   -3.8328   -0.9144 C   0  0  0  0  0  0  0  0  0  0  0  0
    4.6620   -4.6092   -2.2376 C   0  0  0  0  0  0  0  0  0  0  0  0
    4.8784   -4.7516    0.2547 C   0  0  0  0  0  0  0  0  0  0  0  0
    2.7981   -0.8857    0.1863 N   0  0  0  0  0  0  0  0  0  0  0  0
    1.7943    0.0104    0.1267 C   0  0  0  0  0  0  0  0  0  0  0  0
    1.2129    0.3922    1.2638 O   0  0  0  0  0  0  0  0  0  0  0  0
    1.1479    0.7171   -0.9948 C   0  0  2  0  0  0  0  0  0  0  0  0
    1.9392    1.3757   -2.0385 C   0  0  0  0  0  0  0  0  0  0  0  0
    2.8424    0.6002   -2.8900 C   0  0  0  0  0  0  0  0  0  0  0  0
    2.3407   -0.1749   -3.9344 C   0  0  0  0  0  0  0  0  0  0  0  0
    3.1377   -0.8456   -4.8267 C   0  0  0  0  0  0  0  0  0  0  0  0
    4.5335   -0.7836   -4.7306 C   0  0  0  0  0  0  0  0  0  0  0  0
    5.0333   -0.0199   -3.7004 C   0  0  0  0  0  0  0  0  0  0  0  0
    4.2169    0.6474   -2.8131 C   0  0  0  0  0  0  0  0  0  0  0  0
    0.2650    1.7595   -0.4262 N   0  0  0  0  0  0  0  0  0  0  0  0
   -1.1168    1.6276   -0.3953 C   0  0  0  0  0  0  0  0  0  0  0  0
   -1.6189    0.5536   -0.9074 O   0  0  0  0  0  0  0  0  0  0  0  0
   -2.0480    2.6186    0.1724 C   0  0  2  0  0  0  0  0  0  0  0  0
   -1.9116    2.9462    1.6042 C   0  0  0  0  0  0  0  0  0  0  0  0
   -0.6607    3.5467    2.1213 C   0  0  0  0  0  0  0  0  0  0  0  0
   -0.8886    3.7474    3.6465 C   0  0  0  0  0  0  0  0  0  0  0  0
   -0.3692    4.9189    1.5675 C   0  0  0  0  0  0  0  0  0  0  0  0
   -3.4175    2.2103   -0.0608 N   0  0  0  0  0  0  0  0  0  0  0  0
   -3.9900    1.0574    0.4947 C   0  0  0  0  0  0  0  0  0  0  0  0
   -3.3100    0.2707    1.2502 O   0  0  0  0  0  0  0  0  0  0  0  0
   -5.4083    0.7281    0.2093 C   0  0  2  0  0  0  0  0  0  0  0  0
   -6.4022    1.5701    0.9316 C   0  0  0  0  0  0  0  0  0  0  0  0
   -6.3896    3.0157    0.6966 C   0  0  0  0  0  0  0  0  0  0  0  0
   -5.8552    3.9820    1.5495 C   0  0  0  0  0  0  0  0  0  0  0  0
   -6.0261    5.1808    1.0128 N   0  0  0  0  0  0  0  0  0  0  0  0
   -6.6468    5.1033   -0.1601 C   0  0  0  0  0  0  0  0  0  0  0  0
   -7.0401    6.0557   -1.0669 C   0  0  0  0  0  0  0  0  0  0  0  0
   -7.6887    5.7106   -2.2347 C   0  0  0  0  0  0  0  0  0  0  0  0
   -7.9130    4.3555   -2.4276 C   0  0  0  0  0  0  0  0  0  0  0  0
   -7.5268    3.3850   -1.5302 C   0  0  0  0  0  0  0  0  0  0  0  0
   -6.8806    3.7564   -0.3703 C   0  0  0  0  0  0  0  0  0  0  0  0
   -5.6258   -0.6727    0.6422 N   0  0  0  0  0  0  0  0  0  0  0  0
   -5.9688   -1.6783   -0.2340 C   0  0  0  0  0  0  0  0  0  0  0  0
   -6.0877   -1.3367   -1.4780 O   0  0  0  0  0  0  0  0  0  0  0  0
   -6.2153   -3.0728    0.0800 C   0  0  1  0  0  0  0  0  0  0  0  0
   -6.7174   -3.7844   -1.1181 N   0  0  0  0  0  0  0  0  0  0  0  0
   -7.9654   -4.4354   -1.1174 C   0  0  0  0  0  0  0  0  0  0  0  0
   -8.5136   -5.1547   -2.2950 C   0  0  0  0  0  0  0  0  0  0  0  0
   -8.6599   -4.4079   -0.0717 O   0  0  0  0  0  0  0  0  0  0  0  0
   -4.9822   -3.7743    0.5774 C   0  0  0  0  0  0  0  0  0  0  0  0
   -5.3045   -5.2600    0.8323 C   0  0  0  0  0  0  0  0  0  0  0  0
   -4.4925   -3.2714    1.9196 C   0  0  0  0  0  0  0  0  0  0  0  0
    8.4002   -0.3779   -0.0846 C   0  0  0  0  0  0  0  0  0  0  0  0
    9.3276    0.5553   -0.4270 O   0  0  0  0  0  0  0  0  0  0  0  0
    8.4088   -1.4317   -0.8859 O   0  0  0  0  0  0  0  0  0  0  0  0
    7.2954    1.7104    2.9913 H   0  0  0  0  0  0  0  0  0  0  0  0
    8.8161    2.3426    3.6248 H   0  0  0  0  0  0  0  0  0  0  0  0
    8.5956    2.1845    1.8454 H   0  0  0  0  0  0  0  0  0  0  0  0
    9.0014    0.1386    4.0423 H   0  0  0  0  0  0  0  0  0  0  0  0
   10.4859   -0.7351    1.7473 H   0  0  0  0  0  0  0  0  0  0  0  0
   11.0493    0.0128    3.2890 H   0  0  0  0  0  0  0  0  0  0  0  0
   10.7864    1.0285    1.8769 H   0  0  0  0  0  0  0  0  0  0  0  0
    8.4339   -1.6627    2.4126 H   0  0  0  0  0  0  0  0  0  0  0  0
    7.0803   -0.7489    3.0685 H   0  0  0  0  0  0  0  0  0  0  0  0
    6.8450    0.5779    0.9150 H   0  0  0  0  0  0  0  0  0  0  0  0
    6.8268   -2.3749    0.6895 H   0  0  0  0  0  0  0  0  0  0  0  0
    3.6874   -2.5220    1.1513 H   0  0  0  0  0  0  0  0  0  0  0  0
    3.9029   -2.2594   -1.9152 H   0  0  0  0  0  0  0  0  0  0  0  0
    2.8828   -3.2727   -0.9090 H   0  0  0  0  0  0  0  0  0  0  0  0
    5.9460   -3.4539   -1.0633 H   0  0  0  0  0  0  0  0  0  0  0  0
    3.7459   -5.2203   -2.1460 H   0  0  0  0  0  0  0  0  0  0  0  0
    4.5917   -3.8623   -3.0526 H   0  0  0  0  0  0  0  0  0  0  0  0
    5.5590   -5.2193   -2.4501 H   0  0  0  0  0  0  0  0  0  0  0  0
    4.9242   -5.8012   -0.0638 H   0  0  0  0  0  0  0  0  0  0  0  0
    5.7964   -4.5616    0.8656 H   0  0  0  0  0  0  0  0  0  0  0  0
    4.0363   -4.5396    0.9575 H   0  0  0  0  0  0  0  0  0  0  0  0
    2.7652   -0.8492    1.5619 H   0  0  0  0  0  0  0  0  0  0  0  0
    0.4019    0.0017   -1.4811 H   0  0  0  0  0  0  0  0  0  0  0  0
    1.2632    1.9432   -2.7591 H   0  0  0  0  0  0  0  0  0  0  0  0
    2.5924    2.2023   -1.5725 H   0  0  0  0  0  0  0  0  0  0  0  0
    1.2476   -0.2107   -3.9874 H   0  0  0  0  0  0  0  0  0  0  0  0
    2.7245   -1.4369   -5.6262 H   0  0  0  0  0  0  0  0  0  0  0  0
    5.1325   -1.3218   -5.4392 H   0  0  0  0  0  0  0  0  0  0  0  0
    6.1185    0.0236   -3.6243 H   0  0  0  0  0  0  0  0  0  0  0  0
    4.6943    1.2378   -2.0304 H   0  0  0  0  0  0  0  0  0  0  0  0
    0.7595    2.5869   -0.0824 H   0  0  0  0  0  0  0  0  0  0  0  0
   -1.8631    3.5498   -0.4724 H   0  0  0  0  0  0  0  0  0  0  0  0
   -2.8005    3.5752    1.9309 H   0  0  0  0  0  0  0  0  0  0  0  0
   -2.0807    1.9972    2.2142 H   0  0  0  0  0  0  0  0  0  0  0  0
    0.2455    2.9480    2.0574 H   0  0  0  0  0  0  0  0  0  0  0  0
   -0.2643    3.0265    4.2304 H   0  0  0  0  0  0  0  0  0  0  0  0
   -0.7022    4.8020    3.9375 H   0  0  0  0  0  0  0  0  0  0  0  0
   -1.9441    3.5273    3.8944 H   0  0  0  0  0  0  0  0  0  0  0  0
   -1.1603    5.1497    0.8085 H   0  0  0  0  0  0  0  0  0  0  0  0
    0.6525    5.0202    1.1428 H   0  0  0  0  0  0  0  0  0  0  0  0
   -0.5043    5.6545    2.3564 H   0  0  0  0  0  0  0  0  0  0  0  0
   -4.0166    2.8065   -0.6987 H   0  0  0  0  0  0  0  0  0  0  0  0
   -5.5609    0.8120   -0.8694 H   0  0  0  0  0  0  0  0  0  0  0  0
   -6.2376    1.3917    2.0254 H   0  0  0  0  0  0  0  0  0  0  0  0
   -7.4311    1.1424    0.7563 H   0  0  0  0  0  0  0  0  0  0  0  0
   -5.3660    3.8388    2.5088 H   0  0  0  0  0  0  0  0  0  0  0  0
   -5.7255    6.1150    1.4306 H   0  0  0  0  0  0  0  0  0  0  0  0
   -6.8610    7.1291   -0.9016 H   0  0  0  0  0  0  0  0  0  0  0  0
   -8.0133    6.4678   -2.9653 H   0  0  0  0  0  0  0  0  0  0  0  0
   -8.4116    4.0434   -3.3261 H   0  0  0  0  0  0  0  0  0  0  0  0
   -7.7224    2.3214   -1.7229 H   0  0  0  0  0  0  0  0  0  0  0  0
   -5.5057   -0.8171    1.6558 H   0  0  0  0  0  0  0  0  0  0  0  0
   -6.9982   -3.2264    0.8607 H   0  0  0  0  0  0  0  0  0  0  0  0
   -6.1158   -3.7830   -1.9569 H   0  0  0  0  0  0  0  0  0  0  0  0
   -9.5103   -4.6842   -2.5311 H   0  0  0  0  0  0  0  0  0  0  0  0
   -8.6001   -6.2353   -2.0715 H   0  0  0  0  0  0  0  0  0  0  0  0
   -7.8630   -4.9492   -3.1884 H   0  0  0  0  0  0  0  0  0  0  0  0
   -4.1240   -3.7607   -0.1154 H   0  0  0  0  0  0  0  0  0  0  0  0
   -5.2225   -5.8549   -0.0811 H   0  0  0  0  0  0  0  0  0  0  0  0
   -6.2983   -5.3102    1.3040 H   0  0  0  0  0  0  0  0  0  0  0  0
   -4.5501   -5.6741    1.5622 H   0  0  0  0  0  0  0  0  0  0  0  0
   -3.9614   -4.1150    2.4548 H   0  0  0  0  0  0  0  0  0  0  0  0
   -5.3578   -2.9782    2.5071 H   0  0  0  0  0  0  0  0  0  0  0  0
   -3.7976   -2.4296    1.7704 H   0  0  0  0  0  0  0  0  0  0  0  0
   10.2802    0.3811   -0.7525 H   0  0  0  0  0  0  0  0  0  0  0  0
  1  2  1  0
  2  3  1  0
  2  4  1  0
  4  5  1  0
  5  6  1  0
  6  7  1  0
  7  8  2  0
  7  9  1  0
  9 10  1  0
 10 11  1  0
 11 12  1  0
 11 13  1  0
  9 14  1  0
 14 15  1  0
 15 16  2  0
 15 17  1  0
 17 18  1  0
 18 19  1  0
 19 20  2  0
 20 21  1  0
 21 22  2  0
 22 23  1  0
 23 24  2  0
 17 25  1  0
 25 26  1  0
 26 27  2  0
 26 28  1  0
 28 29  1  0
 29 30  1  0
 30 31  1  0
 30 32  1  0
 28 33  1  0
 33 34  1  0
 34 35  2  0
 34 36  1  0
 36 37  1  0
 37 38  1  0
 38 39  2  0
 39 40  1  0
 40 41  1  0
 41 42  2  0
 42 43  1  0
 43 44  2  0
 44 45  1  0
 45 46  2  0
 36 47  1  0
 47 48  1  0
 48 49  2  0
 48 50  1  0
 50 51  1  0
 51 52  1  0
 52 53  1  0
 52 54  2  0
 50 55  1  0
 55 56  1  0
 55 57  1  0
  5 58  1  0
 58 59  1  0
 58 60  2  0
 24 19  1  0
 46 38  1  0
 46 41  1  0
  1 61  1  0
  1 62  1  0
  1 63  1  0
  2 64  1  0
  3 65  1  0
  3 66  1  0
  3 67  1  0
  4 68  1  0
  4 69  1  0
  5 70  1  1
  6 71  1  0
  9 72  1  1
 10 73  1  0
 10 74  1  0
 11 75  1  0
 12 76  1  0
 12 77  1  0
 12 78  1  0
 13 79  1  0
 13 80  1  0
 13 81  1  0
 14 82  1  0
 17 83  1  6
 18 84  1  0
 18 85  1  0
 20 86  1  0
 21 87  1  0
 22 88  1  0
 23 89  1  0
 24 90  1  0
 25 91  1  0
 28 92  1  6
 29 93  1  0
 29 94  1  0
 30 95  1  0
 31 96  1  0
 31 97  1  0
 31 98  1  0
 32 99  1  0
 32100  1  0
 32101  1  0
 33102  1  0
 36103  1  6
 37104  1  0
 37105  1  0
 39106  1  0
 40107  1  0
 42108  1  0
 43109  1  0
 44110  1  0
 45111  1  0
 47112  1  0
 50113  1  1
 51114  1  0
 53115  1  0
 53116  1  0
 53117  1  0
 55118  1  0
 56119  1  0
 56120  1  0
 56121  1  0
 57122  1  0
 57123  1  0
 57124  1  0
 59125  1  0
M  END
$$$$
[H]c1nc2c(N([H])C3([H])C([H])([H])C3([H])[H])nc(N([H])c3c([H])c(N4C([H])([H])C([H])([H])N(C([H])([H])[H])C([H])([H])C4([H])[H])c([H])c(C4([H])C([H])([H])C4([H])[H])c3[H])nn2c1C#N
     RDKit          3D

 59 64  0  0  0  0  0  0  0  0999 V2000
   -6.3876    3.5111    0.3524 C   0  0  0  0  0  0  0  0  0  0  0  0
   -5.9343    2.2262   -0.1477 N   0  0  0  0  0  0  0  0  0  0  0  0
   -5.6496    1.2952    0.8950 C   0  0  0  0  0  0  0  0  0  0  0  0
   -4.7514    0.1513    0.4648 C   0  0  0  0  0  0  0  0  0  0  0  0
   -3.5144    0.7119    0.0169 N   0  0  0  0  0  0  0  0  0  0  0  0
   -3.5066    2.0599   -0.4591 C   0  0  0  0  0  0  0  0  0  0  0  0
   -4.8438    2.3882   -1.0862 C   0  0  0  0  0  0  0  0  0  0  0  0
   -2.3431   -0.1147    0.0643 C   0  0  0  0  0  0  0  0  0  0  0  0
   -1.0972    0.3951   -0.2194 C   0  0  0  0  0  0  0  0  0  0  0  0
    0.0785   -0.3748   -0.1906 C   0  0  0  0  0  0  0  0  0  0  0  0
    1.3019    0.2552   -0.5179 N   0  0  0  0  0  0  0  0  0  0  0  0
    2.6016   -0.1764   -0.3013 C   0  0  0  0  0  0  0  0  0  0  0  0
    3.6509    0.5925   -0.7126 N   0  0  0  0  0  0  0  0  0  0  0  0
    4.9236    0.2657   -0.5348 C   0  0  0  0  0  0  0  0  0  0  0  0
    6.0055    1.0922   -0.9777 N   0  0  0  0  0  0  0  0  0  0  0  0
    5.7449    2.3487   -1.6528 C   0  0  0  0  0  0  0  0  0  0  0  0
    6.9096    3.1810   -2.1018 C   0  0  0  0  0  0  0  0  0  0  0  0
    6.0875    3.6047   -0.9396 C   0  0  0  0  0  0  0  0  0  0  0  0
    5.2231   -0.9250    0.1055 C   0  0  0  0  0  0  0  0  0  0  0  0
    6.3851   -1.5216    0.4288 N   0  0  0  0  0  0  0  0  0  0  0  0
    6.0917   -2.6799    1.0511 C   0  0  0  0  0  0  0  0  0  0  0  0
    4.7157   -2.7764    1.1001 C   0  0  0  0  0  0  0  0  0  0  0  0
    3.9532   -3.8584    1.6804 C   0  0  0  0  0  0  0  0  0  0  0  0
    3.3581   -4.7292    2.1515 N   0  0  0  0  0  0  0  0  0  0  0  0
    4.1853   -1.6817    0.5102 N   0  0  0  0  0  0  0  0  0  0  0  0
    2.9245   -1.3083    0.3074 N   0  0  0  0  0  0  0  0  0  0  0  0
   -0.0840   -1.6975    0.1438 C   0  0  0  0  0  0  0  0  0  0  0  0
   -1.3156   -2.2708    0.4408 C   0  0  0  0  0  0  0  0  0  0  0  0
   -2.4178   -1.4485    0.3902 C   0  0  0  0  0  0  0  0  0  0  0  0
   -1.4380   -3.7082    0.7970 C   0  0  0  0  0  0  0  0  0  0  0  0
   -2.6211   -4.4921    0.3708 C   0  0  0  0  0  0  0  0  0  0  0  0
   -2.3875   -4.1487    1.8271 C   0  0  0  0  0  0  0  0  0  0  0  0
   -5.9183    3.7326    1.3417 H   0  0  0  0  0  0  0  0  0  0  0  0
   -6.0931    4.2668   -0.4054 H   0  0  0  0  0  0  0  0  0  0  0  0
   -7.4945    3.5338    0.4586 H   0  0  0  0  0  0  0  0  0  0  0  0
   -6.6273    0.8125    1.1841 H   0  0  0  0  0  0  0  0  0  0  0  0
   -5.2258    1.7663    1.8049 H   0  0  0  0  0  0  0  0  0  0  0  0
   -4.6613   -0.5110    1.3524 H   0  0  0  0  0  0  0  0  0  0  0  0
   -5.2906   -0.4182   -0.3061 H   0  0  0  0  0  0  0  0  0  0  0  0
   -2.7636    2.1485   -1.2950 H   0  0  0  0  0  0  0  0  0  0  0  0
   -3.2209    2.7590    0.3234 H   0  0  0  0  0  0  0  0  0  0  0  0
   -4.8123    3.4613   -1.3679 H   0  0  0  0  0  0  0  0  0  0  0  0
   -5.0250    1.7432   -1.9462 H   0  0  0  0  0  0  0  0  0  0  0  0
   -1.0470    1.4623   -0.4763 H   0  0  0  0  0  0  0  0  0  0  0  0
    1.1954    1.2152   -1.0163 H   0  0  0  0  0  0  0  0  0  0  0  0
    6.9853    0.8098   -0.8250 H   0  0  0  0  0  0  0  0  0  0  0  0
    4.8382    2.3792   -2.2964 H   0  0  0  0  0  0  0  0  0  0  0  0
    6.8174    3.7913   -3.0295 H   0  0  0  0  0  0  0  0  0  0  0  0
    7.9475    2.7975   -1.9626 H   0  0  0  0  0  0  0  0  0  0  0  0
    6.5201    3.5314    0.0975 H   0  0  0  0  0  0  0  0  0  0  0  0
    5.4493    4.5202   -1.0422 H   0  0  0  0  0  0  0  0  0  0  0  0
    6.7888   -3.4257    1.4536 H   0  0  0  0  0  0  0  0  0  0  0  0
    0.7488   -2.3589    0.1808 H   0  0  0  0  0  0  0  0  0  0  0  0
   -3.3852   -1.8778    0.6158 H   0  0  0  0  0  0  0  0  0  0  0  0
   -0.4518   -4.2481    0.8018 H   0  0  0  0  0  0  0  0  0  0  0  0
   -3.3964   -3.9815   -0.2002 H   0  0  0  0  0  0  0  0  0  0  0  0
   -2.4494   -5.5743    0.1266 H   0  0  0  0  0  0  0  0  0  0  0  0
   -2.1078   -4.9910    2.5217 H   0  0  0  0  0  0  0  0  0  0  0  0
   -3.1693   -3.5109    2.2615 H   0  0  0  0  0  0  0  0  0  0  0  0
  1  2  1  0
  2  3  1  0
  3  4  1  0
  4  5  1  0
  5  6  1  0
  6  7  1  0
  5  8  1  0
  8  9  2  0
  9 10  1  0
 10 11  1  0
 11 12  1  0
 12 13  1  0
 13 14  2  0
 14 15  1  0
 15 16  1  0
 16 17  1  0
 17 18  1  0
 14 19  1  0
 19 20  2  0
 20 21  1  0
 21 22  2  0
 22 23  1  0
 23 24  3  0
 22 25  1  0
 25 26  1  0
 10 27  2  0
 27 28  1  0
 28 29  2  0
 28 30  1  0
 30 31  1  0
 31 32  1  0
  7  2  1  0
 29  8  1  0
 32 30  1  0
 26 12  2  0
 18 16  1  0
 25 19  1  0
  1 33  1  0
  1 34  1  0
  1 35  1  0
  3 36  1  0
  3 37  1  0
  4 38  1  0
  4 39  1  0
  6 40  1  0
  6 41  1  0
  7 42  1  0
  7 43  1  0
  9 44  1  0
 11 45  1  0
 15 46  1  0
 16 47  1  0
 17 48  1  0
 17 49  1  0
 18 50  1  0
 18 51  1  0
 21 52  1  0
 27 53  1  0
 29 54  1  0
 30 55  1  0
 31 56  1  0
 31 57  1  0
 32 58  1  0
 32 59  1  0
M  END
$$$$
[H]OC(=O)[C@@]([H])(N([H])C(=O)C([H])([H])P(=O)(O[H])[C@@]([H])(C([H])([H])[H])[N+]([H])([H])[H])C([H])([H])C([H])(C([H])([H])[H])C([H])([H])[H]
     RDKit          3D

 40 39  0  0  0  0  0  0  0  0999 V2000
   -5.0972    0.7434    0.1401 C   0  0  0  0  0  0  0  0  0  0  0  0
   -4.3661   -0.5593    0.2055 C   0  0  1  0  0  0  0  0  0  0  0  0
   -4.9127   -1.5128   -0.7510 N   0  0  0  0  0  0  0  0  0  0  0  0
   -2.5869   -0.3676   -0.1190 P   0  0  0  0  0  0  0  0  0  0  0  0
   -1.7031   -1.5453    0.7332 O   0  0  0  0  0  0  0  0  0  0  0  0
   -2.3674   -0.5247   -1.6030 O   0  0  0  0  0  0  0  0  0  0  0  0
   -1.9960    1.2511    0.4144 C   0  0  0  0  0  0  0  0  0  0  0  0
   -0.5584    1.3733    0.1269 C   0  0  0  0  0  0  0  0  0  0  0  0
   -0.0478    2.5016    0.4748 O   0  0  0  0  0  0  0  0  0  0  0  0
    0.2385    0.3974   -0.4656 N   0  0  0  0  0  0  0  0  0  0  0  0
    1.6806    0.6180   -0.7136 C   0  0  1  0  0  0  0  0  0  0  0  0
    2.4551   -0.3322    0.1333 C   0  0  0  0  0  0  0  0  0  0  0  0
    3.9513   -0.2398    0.0059 C   0  0  0  0  0  0  0  0  0  0  0  0
    4.5482   -1.2890    0.9653 C   0  0  0  0  0  0  0  0  0  0  0  0
    4.5064    1.1161    0.2938 C   0  0  0  0  0  0  0  0  0  0  0  0
    1.9801    0.5262   -2.1385 C   0  0  0  0  0  0  0  0  0  0  0  0
    3.2268    0.7250   -2.6792 O   0  0  0  0  0  0  0  0  0  0  0  0
    1.0307    0.2450   -2.9477 O   0  0  0  0  0  0  0  0  0  0  0  0
   -4.6123    1.4798   -0.5257 H   0  0  0  0  0  0  0  0  0  0  0  0
   -5.2123    1.1640    1.1620 H   0  0  0  0  0  0  0  0  0  0  0  0
   -6.1070    0.5585   -0.2822 H   0  0  0  0  0  0  0  0  0  0  0  0
   -4.4657   -1.0009    1.2135 H   0  0  0  0  0  0  0  0  0  0  0  0
   -4.5294   -1.3205   -1.7061 H   0  0  0  0  0  0  0  0  0  0  0  0
   -5.9412   -1.4485   -0.8021 H   0  0  0  0  0  0  0  0  0  0  0  0
   -4.6349   -2.4709   -0.4235 H   0  0  0  0  0  0  0  0  0  0  0  0
   -2.1700   -2.4035    0.7223 H   0  0  0  0  0  0  0  0  0  0  0  0
   -2.5675    2.0544   -0.1058 H   0  0  0  0  0  0  0  0  0  0  0  0
   -2.2083    1.4168    1.4978 H   0  0  0  0  0  0  0  0  0  0  0  0
   -0.0932   -0.5303   -0.7723 H   0  0  0  0  0  0  0  0  0  0  0  0
    1.8916    1.6396   -0.3398 H   0  0  0  0  0  0  0  0  0  0  0  0
    2.1793   -1.3960   -0.0253 H   0  0  0  0  0  0  0  0  0  0  0  0
    2.2390   -0.1464    1.2252 H   0  0  0  0  0  0  0  0  0  0  0  0
    4.3360   -0.5725   -0.9936 H   0  0  0  0  0  0  0  0  0  0  0  0
    3.9754   -2.2135    0.8710 H   0  0  0  0  0  0  0  0  0  0  0  0
    5.5936   -1.5115    0.6374 H   0  0  0  0  0  0  0  0  0  0  0  0
    4.6115   -0.8861    1.9844 H   0  0  0  0  0  0  0  0  0  0  0  0
    5.2992    1.0081    1.0904 H   0  0  0  0  0  0  0  0  0  0  0  0
    5.0171    1.5925   -0.5705 H   0  0  0  0  0  0  0  0  0  0  0  0
    3.7295    1.8316    0.6443 H   0  0  0  0  0  0  0  0  0  0  0  0
    3.6876    0.0290   -3.2552 H   0  0  0  0  0  0  0  0  0  0  0  0
  1  2  1  0
  2  3  1  0
  2  4  1  0
  4  5  1  0
  4  6  2  0
  4  7  1  0
  7  8  1  0
  8  9  2  0
  8 10  1  0
 10 11  1  0
 11 12  1  0
 12 13  1  0
 13 14  1  0
 13 15  1  0
 11 16  1  0
 16 17  1  0
 16 18  2  0
  1 19  1  0
  1 20  1  0
  1 21  1  0
  2 22  1  1
  3 23  1  0
  3 24  1  0
  3 25  1  0
  5 26  1  0
  7 27  1  0
  7 28  1  0
 10 29  1  0
 11 30  1  1
 12 31  1  0
 12 32  1  0
 13 33  1  0
 14 34  1  0
 14 35  1  0
 14 36  1  0
 15 37  1  0
 15 38  1  0
 15 39  1  0
 17 40  1  0
M  CHG  1   3   1
M  END
$$$$
[H]c1c([H])c([H])c(C([H])([H])[H])c(-n2nnc(C([H])([H])N(C([H])([H])C([H])(C([H])([H])[H])C([H])([H])[H])S(=O)(=O)c3c([H])c([H])c4c([H])c([H])c([H])c([H])c4c3[H])c2[H])c1[H]
     RDKit          3D

 57 60  0  0  0  0  0  0  0  0999 V2000
    0.6744   -4.6364    0.0314 C   0  0  0  0  0  0  0  0  0  0  0  0
   -0.3667   -3.8341   -0.7229 C   0  0  0  0  0  0  0  0  0  0  0  0
   -1.6887   -4.5350   -0.6040 C   0  0  0  0  0  0  0  0  0  0  0  0
   -0.3726   -2.3751   -0.3793 C   0  0  0  0  0  0  0  0  0  0  0  0
   -0.6111   -2.0524    0.9544 N   0  0  0  0  0  0  0  0  0  0  0  0
    0.4476   -1.8179    1.8455 C   0  0  0  0  0  0  0  0  0  0  0  0
    1.1629   -0.5336    1.7175 C   0  0  0  0  0  0  0  0  0  0  0  0
    2.1447   -0.1494    0.8312 C   0  0  0  0  0  0  0  0  0  0  0  0
    2.5263    1.1161    1.0752 N   0  0  0  0  0  0  0  0  0  0  0  0
    1.7775    1.5032    2.1098 N   0  0  0  0  0  0  0  0  0  0  0  0
    0.9670    0.5413    2.5016 N   0  0  0  0  0  0  0  0  0  0  0  0
    3.5125    1.8945    0.3919 C   0  0  0  0  0  0  0  0  0  0  0  0
    3.2174    2.3972   -0.8505 C   0  0  0  0  0  0  0  0  0  0  0  0
    4.1004    3.1588   -1.5893 C   0  0  0  0  0  0  0  0  0  0  0  0
    5.3339    3.4108   -1.0248 C   0  0  0  0  0  0  0  0  0  0  0  0
    5.6319    2.9061    0.2240 C   0  0  0  0  0  0  0  0  0  0  0  0
    4.7418    2.1443    0.9570 C   0  0  0  0  0  0  0  0  0  0  0  0
    5.1197    1.6258    2.3013 C   0  0  0  0  0  0  0  0  0  0  0  0
   -2.1449   -1.5858    1.4595 S   0  0  0  0  0  0  0  0  0  0  0  0
   -2.0597   -1.2153    2.9468 O   0  0  0  0  0  0  0  0  0  0  0  0
   -3.2059   -2.6153    1.3733 O   0  0  0  0  0  0  0  0  0  0  0  0
   -2.7118   -0.1201    0.6631 C   0  0  0  0  0  0  0  0  0  0  0  0
   -2.5171    1.1375    1.1828 C   0  0  0  0  0  0  0  0  0  0  0  0
   -2.9558    2.2897    0.5684 C   0  0  0  0  0  0  0  0  0  0  0  0
   -3.6348    2.1964   -0.6446 C   0  0  0  0  0  0  0  0  0  0  0  0
   -4.0816    3.3448   -1.2737 C   0  0  0  0  0  0  0  0  0  0  0  0
   -4.7555    3.2450   -2.4788 C   0  0  0  0  0  0  0  0  0  0  0  0
   -4.9843    2.0096   -3.0557 C   0  0  0  0  0  0  0  0  0  0  0  0
   -4.5242    0.8864   -2.3993 C   0  0  0  0  0  0  0  0  0  0  0  0
   -3.8481    0.9424   -1.1966 C   0  0  0  0  0  0  0  0  0  0  0  0
   -3.3892   -0.1954   -0.5446 C   0  0  0  0  0  0  0  0  0  0  0  0
    1.6750   -4.2125    0.0185 H   0  0  0  0  0  0  0  0  0  0  0  0
    0.7315   -5.6422   -0.4603 H   0  0  0  0  0  0  0  0  0  0  0  0
    0.3696   -4.8349    1.0734 H   0  0  0  0  0  0  0  0  0  0  0  0
   -0.1091   -3.8981   -1.8366 H   0  0  0  0  0  0  0  0  0  0  0  0
   -2.5249   -3.9617   -1.0403 H   0  0  0  0  0  0  0  0  0  0  0  0
   -1.8776   -4.9432    0.4083 H   0  0  0  0  0  0  0  0  0  0  0  0
   -1.6258   -5.4741   -1.2505 H   0  0  0  0  0  0  0  0  0  0  0  0
   -1.2401   -1.9446   -0.9854 H   0  0  0  0  0  0  0  0  0  0  0  0
    0.5062   -1.8532   -0.8425 H   0  0  0  0  0  0  0  0  0  0  0  0
    0.0303   -1.9156    2.8942 H   0  0  0  0  0  0  0  0  0  0  0  0
    1.1608   -2.6929    1.7935 H   0  0  0  0  0  0  0  0  0  0  0  0
    2.5293   -0.7987    0.0624 H   0  0  0  0  0  0  0  0  0  0  0  0
    2.2441    2.2183   -1.3351 H   0  0  0  0  0  0  0  0  0  0  0  0
    3.8319    3.5443   -2.5782 H   0  0  0  0  0  0  0  0  0  0  0  0
    6.0348    4.0007   -1.5826 H   0  0  0  0  0  0  0  0  0  0  0  0
    6.6154    3.1093    0.6695 H   0  0  0  0  0  0  0  0  0  0  0  0
    4.3114    1.7779    3.0440 H   0  0  0  0  0  0  0  0  0  0  0  0
    5.4742    0.5751    2.2658 H   0  0  0  0  0  0  0  0  0  0  0  0
    5.9800    2.2309    2.6573 H   0  0  0  0  0  0  0  0  0  0  0  0
   -1.9935    1.2422    2.1227 H   0  0  0  0  0  0  0  0  0  0  0  0
   -2.7746    3.2568    1.0237 H   0  0  0  0  0  0  0  0  0  0  0  0
   -3.9294    4.3287   -0.8674 H   0  0  0  0  0  0  0  0  0  0  0  0
   -5.1280    4.1204   -3.0148 H   0  0  0  0  0  0  0  0  0  0  0  0
   -5.5191    1.9405   -4.0104 H   0  0  0  0  0  0  0  0  0  0  0  0
   -4.7036   -0.0970   -2.8537 H   0  0  0  0  0  0  0  0  0  0  0  0
   -3.5750   -1.1601   -1.0077 H   0  0  0  0  0  0  0  0  0  0  0  0
  1  2  1  0
  2  3  1  0
  2  4  1  0
  4  5  1  0
  5  6  1  0
  6  7  1  0
  7  8  2  0
  8  9  1  0
  9 10  1  0
 10 11  2  0
  9 12  1  0
 12 13  2  0
 13 14  1  0
 14 15  2  0
 15 16  1  0
 16 17  2  0
 17 18  1  0
  5 19  1  0
 19 20  2  0
 19 21  2  0
 19 22  1  0
 22 23  2  0
 23 24  1  0
 24 25  2  0
 25 26  1  0
 26 27  2  0
 27 28  1  0
 28 29  2  0
 29 30  1  0
 30 31  2  0
 11  7  1  0
 17 12  1  0
 31 22  1  0
 30 25  1  0
  1 32  1  0
  1 33  1  0
  1 34  1  0
  2 35  1  0
  3 36  1  0
  3 37  1  0
  3 38  1  0
  4 39  1  0
  4 40  1  0
  6 41  1  0
  6 42  1  0
  8 43  1  0
 13 44  1  0
 14 45  1  0
 15 46  1  0
 16 47  1  0
 18 48  1  0
 18 49  1  0
 18 50  1  0
 23 51  1  0
 24 52  1  0
 26 53  1  0
 27 54  1  0
 28 55  1  0
 29 56  1  0
 31 57  1  0
M  END
$$$$
[H]c1c([H])c(OC([H])([H])C([H])([H])C([H])([H])n2c(=O)c(OC3([H])C([H])([H])OC([H])([H])C3([H])[H])nc3c2c(Cl)c(N([H])C(=O)N([H])C([H])([H])[H])n3[H])c([H])c([H])c1F
     RDKit          3D

 56 59  0  0  0  0  0  0  0  0999 V2000
   -5.7946    6.1842   -1.0677 C   0  0  0  0  0  0  0  0  0  0  0  0
   -4.4102    5.8129   -1.0980 N   0  0  0  0  0  0  0  0  0  0  0  0
   -4.0423    4.4617   -0.8972 C   0  0  0  0  0  0  0  0  0  0  0  0
   -4.9170    3.5906   -0.6936 O   0  0  0  0  0  0  0  0  0  0  0  0
   -2.6826    4.0945   -0.9266 N   0  0  0  0  0  0  0  0  0  0  0  0
   -2.1893    2.7727   -0.7390 C   0  0  0  0  0  0  0  0  0  0  0  0
   -2.8195    1.6331   -0.5069 N   0  0  0  0  0  0  0  0  0  0  0  0
   -1.9508    0.5935   -0.3914 C   0  0  0  0  0  0  0  0  0  0  0  0
   -2.1125   -0.7199   -0.1632 N   0  0  0  0  0  0  0  0  0  0  0  0
   -1.0725   -1.5683   -0.0925 C   0  0  0  0  0  0  0  0  0  0  0  0
   -1.2210   -2.9372    0.1439 O   0  0  0  0  0  0  0  0  0  0  0  0
   -2.4540   -3.5583    0.3293 C   0  0  0  0  0  0  0  0  0  0  0  0
   -2.5371   -4.3547    1.6134 C   0  0  0  0  0  0  0  0  0  0  0  0
   -3.2325   -5.6273    1.1146 C   0  0  0  0  0  0  0  0  0  0  0  0
   -2.5079   -5.8570   -0.0646 O   0  0  0  0  0  0  0  0  0  0  0  0
   -2.6067   -4.6442   -0.7149 C   0  0  0  0  0  0  0  0  0  0  0  0
    0.1725   -1.0198   -0.2667 C   0  0  0  0  0  0  0  0  0  0  0  0
    1.1890   -1.7847   -0.2082 O   0  0  0  0  0  0  0  0  0  0  0  0
    0.4082    0.2907   -0.4993 N   0  0  0  0  0  0  0  0  0  0  0  0
    1.7381    0.8065   -0.6746 C   0  0  0  0  0  0  0  0  0  0  0  0
    2.3933    1.2326    0.6349 C   0  0  0  0  0  0  0  0  0  0  0  0
    3.7596    1.7531    0.2926 C   0  0  0  0  0  0  0  0  0  0  0  0
    4.6446    0.9246   -0.2980 O   0  0  0  0  0  0  0  0  0  0  0  0
    5.2497   -0.1946    0.1876 C   0  0  0  0  0  0  0  0  0  0  0  0
    5.0421   -0.6270    1.4748 C   0  0  0  0  0  0  0  0  0  0  0  0
    5.6814   -1.7796    1.9132 C   0  0  0  0  0  0  0  0  0  0  0  0
    6.5079   -2.4900    1.1029 C   0  0  0  0  0  0  0  0  0  0  0  0
    7.1230   -3.6112    1.5461 F   0  0  0  0  0  0  0  0  0  0  0  0
    6.7079   -2.0429   -0.1868 C   0  0  0  0  0  0  0  0  0  0  0  0
    6.1039   -0.9300   -0.6452 C   0  0  0  0  0  0  0  0  0  0  0  0
   -0.6615    1.1075   -0.5630 C   0  0  0  0  0  0  0  0  0  0  0  0
   -0.8403    2.4519   -0.7755 C   0  0  0  0  0  0  0  0  0  0  0  0
    0.4580    3.5911   -1.0558 Cl  0  0  0  0  0  0  0  0  0  0  0  0
   -5.9968    7.1529   -1.5746 H   0  0  0  0  0  0  0  0  0  0  0  0
   -6.1875    6.2999   -0.0269 H   0  0  0  0  0  0  0  0  0  0  0  0
   -6.3907    5.3839   -1.5317 H   0  0  0  0  0  0  0  0  0  0  0  0
   -3.6800    6.5206   -1.2647 H   0  0  0  0  0  0  0  0  0  0  0  0
   -1.9965    4.8880   -1.1046 H   0  0  0  0  0  0  0  0  0  0  0  0
   -3.8466    1.4956   -0.4155 H   0  0  0  0  0  0  0  0  0  0  0  0
   -3.3185   -2.8447    0.2693 H   0  0  0  0  0  0  0  0  0  0  0  0
   -3.1625   -3.8595    2.3630 H   0  0  0  0  0  0  0  0  0  0  0  0
   -1.5486   -4.6693    1.9785 H   0  0  0  0  0  0  0  0  0  0  0  0
   -3.1351   -6.4540    1.8385 H   0  0  0  0  0  0  0  0  0  0  0  0
   -4.3038   -5.4109    0.8726 H   0  0  0  0  0  0  0  0  0  0  0  0
   -1.7859   -4.5935   -1.4850 H   0  0  0  0  0  0  0  0  0  0  0  0
   -3.5885   -4.6142   -1.2205 H   0  0  0  0  0  0  0  0  0  0  0  0
    2.3524   -0.1185   -0.9589 H   0  0  0  0  0  0  0  0  0  0  0  0
    1.9063    1.4709   -1.5103 H   0  0  0  0  0  0  0  0  0  0  0  0
    2.4871    0.3209    1.2425 H   0  0  0  0  0  0  0  0  0  0  0  0
    1.7942    1.9307    1.2258 H   0  0  0  0  0  0  0  0  0  0  0  0
    4.1751    2.2741    1.2158 H   0  0  0  0  0  0  0  0  0  0  0  0
    3.5757    2.6377   -0.3966 H   0  0  0  0  0  0  0  0  0  0  0  0
    4.4225   -0.0925    2.1761 H   0  0  0  0  0  0  0  0  0  0  0  0
    5.4880   -2.0840    2.9339 H   0  0  0  0  0  0  0  0  0  0  0  0
    7.3733   -2.6332   -0.8047 H   0  0  0  0  0  0  0  0  0  0  0  0
    6.2397   -0.5552   -1.6467 H   0  0  0  0  0  0  0  0  0  0  0  0
  1  2  1  0
  2  3  1  0
  3  4  2  0
  3  5  1  0
  5  6  1  0
  6  7  1  0
  7  8  1  0
  8  9  1  0
  9 10  2  0
 10 11  1  0
 11 12  1  0
 12 13  1  0
 13 14  1  0
 14 15  1  0
 15 16  1  0
 10 17  1  0
 17 18  2  0
 17 19  1  0
 19 20  1  0
 20 21  1  0
 21 22  1  0
 22 23  1  0
 23 24  1  0
 24 25  2  0
 25 26  1  0
 26 27  2  0
 27 28  1  0
 27 29  1  0
 29 30  2  0
 19 31  1  0
 31 32  1  0
 32 33  1  0
 32  6  2  0
 31  8  2  0
 16 12  1  0
 30 24  1  0
  1 34  1  0
  1 35  1  0
  1 36  1  0
  2 37  1  0
  5 38  1  0
  7 39  1  0
 12 40  1  0
 13 41  1  0
 13 42  1  0
 14 43  1  0
 14 44  1  0
 16 45  1  0
 16 46  1  0
 20 47  1  0
 20 48  1  0
 21 49  1  0
 21 50  1  0
 22 51  1  0
 22 52  1  0
 25 53  1  0
 26 54  1  0
 29 55  1  0
 30 56  1  0
M  END
$$$$
[H]OC([H])([H])C([H])([H])N([H])C(=O)c1nc2c([H])c([H])c(OC3([H])N([H])S(=O)(=O)C3([H])[H])c([H])c2s1
     RDKit          3D

 35 37  0  0  0  0  0  0  0  0999 V2000
    7.9037    0.2919    0.0820 O   0  0  0  0  0  0  0  0  0  0  0  0
    6.5235    0.2730   -0.2504 C   0  0  0  0  0  0  0  0  0  0  0  0
    5.9170   -0.7674    0.6464 C   0  0  0  0  0  0  0  0  0  0  0  0
    4.5089   -0.9034    0.4195 N   0  0  0  0  0  0  0  0  0  0  0  0
    3.6320    0.1671    0.6393 C   0  0  0  0  0  0  0  0  0  0  0  0
    4.0391    1.2683    1.0433 O   0  0  0  0  0  0  0  0  0  0  0  0
    2.1778    0.0312    0.3987 C   0  0  0  0  0  0  0  0  0  0  0  0
    1.5089   -1.0257   -0.0267 N   0  0  0  0  0  0  0  0  0  0  0  0
    0.2192   -0.9604   -0.1812 C   0  0  0  0  0  0  0  0  0  0  0  0
   -0.6204   -1.9974   -0.6235 C   0  0  0  0  0  0  0  0  0  0  0  0
   -1.9506   -1.8281   -0.7506 C   0  0  0  0  0  0  0  0  0  0  0  0
   -2.6063   -0.6259   -0.4591 C   0  0  0  0  0  0  0  0  0  0  0  0
   -3.9505   -0.4812   -0.5959 O   0  0  0  0  0  0  0  0  0  0  0  0
   -4.6337    0.6868   -0.3190 C   0  0  0  0  0  0  0  0  0  0  0  0
   -5.6050    1.0882   -1.3576 N   0  0  0  0  0  0  0  0  0  0  0  0
   -6.3858    2.0366   -0.1288 S   0  0  0  0  0  0  0  0  0  0  0  0
   -5.6204    3.2313    0.3164 O   0  0  0  0  0  0  0  0  0  0  0  0
   -7.8469    2.1990   -0.2962 O   0  0  0  0  0  0  0  0  0  0  0  0
   -5.8650    0.5007    0.5833 C   0  0  0  0  0  0  0  0  0  0  0  0
   -1.7832    0.3897   -0.0258 C   0  0  0  0  0  0  0  0  0  0  0  0
   -0.3947    0.2279    0.1116 C   0  0  0  0  0  0  0  0  0  0  0  0
    0.9355    1.1873    0.5959 S   0  0  0  0  0  0  0  0  0  0  0  0
    8.0114    0.0809    1.0457 H   0  0  0  0  0  0  0  0  0  0  0  0
    6.3967   -0.0403   -1.3153 H   0  0  0  0  0  0  0  0  0  0  0  0
    6.1122    1.2822   -0.1056 H   0  0  0  0  0  0  0  0  0  0  0  0
    6.1421   -0.4728    1.7095 H   0  0  0  0  0  0  0  0  0  0  0  0
    6.4476   -1.7319    0.4795 H   0  0  0  0  0  0  0  0  0  0  0  0
    4.1866   -1.8488    0.0815 H   0  0  0  0  0  0  0  0  0  0  0  0
   -0.2006   -2.9858   -0.8793 H   0  0  0  0  0  0  0  0  0  0  0  0
   -2.5801   -2.6485   -1.0957 H   0  0  0  0  0  0  0  0  0  0  0  0
   -4.0993    1.5710    0.0335 H   0  0  0  0  0  0  0  0  0  0  0  0
   -6.2193    0.2561   -1.5582 H   0  0  0  0  0  0  0  0  0  0  0  0
   -6.5075   -0.3225    0.1949 H   0  0  0  0  0  0  0  0  0  0  0  0
   -5.6534    0.5022    1.6513 H   0  0  0  0  0  0  0  0  0  0  0  0
   -2.1396    1.3687    0.2356 H   0  0  0  0  0  0  0  0  0  0  0  0
  1  2  1  0
  2  3  1  0
  3  4  1  0
  4  5  1  0
  5  6  2  0
  5  7  1  0
  7  8  2  0
  8  9  1  0
  9 10  2  0
 10 11  1  0
 11 12  2  0
 12 13  1  0
 13 14  1  0
 14 15  1  0
 15 16  1  0
 16 17  2  0
 16 18  2  0
 16 19  1  0
 12 20  1  0
 20 21  2  0
 21 22  1  0
 22  7  1  0
 21  9  1  0
 19 14  1  0
  1 23  1  0
  2 24  1  0
  2 25  1  0
  3 26  1  0
  3 27  1  0
  4 28  1  0
 10 29  1  0
 11 30  1  0
 14 31  1  0
 15 32  1  0
 19 33  1  0
 19 34  1  0
 20 35  1  0
M  END
$$$$
[H]SC([H])([H])C(=O)C([H])(C(=N\c1c([H])c([H])c([H])c([H])c1[H])/C([H])=C(\[H])C(=O)N([H])C([H])([H])[H])C([H])([H])C([H])([H])C([H])([H])C([H])([H])N([H])[H]
     RDKit          3D

 49 49  0  0  0  0  0  0  0  0999 V2000
    6.5387   -2.2130   -0.3256 C   0  0  0  0  0  0  0  0  0  0  0  0
    5.2267   -1.5487   -0.2498 N   0  0  0  0  0  0  0  0  0  0  0  0
    4.0495   -2.2737   -0.4987 C   0  0  0  0  0  0  0  0  0  0  0  0
    4.1403   -3.4946   -0.7854 O   0  0  0  0  0  0  0  0  0  0  0  0
    2.7290   -1.6793   -0.4410 C   0  0  0  0  0  0  0  0  0  0  0  0
    2.5696   -0.4245   -0.1519 C   0  0  0  0  0  0  0  0  0  0  0  0
    1.2699    0.2923   -0.0614 C   0  0  0  0  0  0  0  0  0  0  0  0
    1.3411    1.4981    0.1763 N   0  0  0  0  0  0  0  0  0  0  0  0
    0.4929    2.5382    0.3468 C   0  0  0  0  0  0  0  0  0  0  0  0
    0.1126    3.3481   -0.7105 C   0  0  0  0  0  0  0  0  0  0  0  0
   -0.7143    4.4443   -0.5391 C   0  0  0  0  0  0  0  0  0  0  0  0
   -1.1823    4.7543    0.7122 C   0  0  0  0  0  0  0  0  0  0  0  0
   -0.8296    3.9807    1.7761 C   0  0  0  0  0  0  0  0  0  0  0  0
    0.0006    2.8826    1.5949 C   0  0  0  0  0  0  0  0  0  0  0  0
    0.0118   -0.4418   -0.1779 C   0  0  0  0  0  0  0  0  0  0  0  0
   -1.1696    0.2697   -0.7685 C   0  0  0  0  0  0  0  0  0  0  0  0
   -2.3282   -0.7383   -0.9226 C   0  0  0  0  0  0  0  0  0  0  0  0
   -3.5278   -0.0132   -1.5090 C   0  0  0  0  0  0  0  0  0  0  0  0
   -4.7022   -0.9375   -1.6833 C   0  0  0  0  0  0  0  0  0  0  0  0
   -5.1184   -1.5122   -0.4026 N   0  0  0  0  0  0  0  0  0  0  0  0
   -0.3780   -0.9051    1.2305 C   0  0  0  0  0  0  0  0  0  0  0  0
   -1.3808   -0.4522    1.7164 O   0  0  0  0  0  0  0  0  0  0  0  0
    0.4167   -1.8622    1.9959 C   0  0  0  0  0  0  0  0  0  0  0  0
   -0.3996   -2.2699    3.5864 S   0  0  0  0  0  0  0  0  0  0  0  0
    6.4310   -3.2280    0.1460 H   0  0  0  0  0  0  0  0  0  0  0  0
    7.2944   -1.6681    0.2434 H   0  0  0  0  0  0  0  0  0  0  0  0
    6.8301   -2.3350   -1.3720 H   0  0  0  0  0  0  0  0  0  0  0  0
    5.2885   -0.5324   -0.0029 H   0  0  0  0  0  0  0  0  0  0  0  0
    1.8346   -2.2810   -0.6590 H   0  0  0  0  0  0  0  0  0  0  0  0
    3.4676    0.1685    0.0464 H   0  0  0  0  0  0  0  0  0  0  0  0
    0.4784    3.1091   -1.6981 H   0  0  0  0  0  0  0  0  0  0  0  0
   -1.0054    5.0709   -1.3745 H   0  0  0  0  0  0  0  0  0  0  0  0
   -1.8265    5.6173    0.8127 H   0  0  0  0  0  0  0  0  0  0  0  0
   -1.2225    4.2618    2.7490 H   0  0  0  0  0  0  0  0  0  0  0  0
    0.2395    2.3127    2.4843 H   0  0  0  0  0  0  0  0  0  0  0  0
    0.1482   -1.3474   -0.7601 H   0  0  0  0  0  0  0  0  0  0  0  0
   -1.6499    1.0126   -0.0662 H   0  0  0  0  0  0  0  0  0  0  0  0
   -0.9698    0.6294   -1.7654 H   0  0  0  0  0  0  0  0  0  0  0  0
   -1.9508   -1.5009   -1.6786 H   0  0  0  0  0  0  0  0  0  0  0  0
   -2.5000   -1.2710   -0.0252 H   0  0  0  0  0  0  0  0  0  0  0  0
   -3.2522    0.3499   -2.5206 H   0  0  0  0  0  0  0  0  0  0  0  0
   -3.7540    0.8458   -0.8568 H   0  0  0  0  0  0  0  0  0  0  0  0
   -5.5537   -0.3500   -2.0583 H   0  0  0  0  0  0  0  0  0  0  0  0
   -4.5022   -1.7497   -2.3836 H   0  0  0  0  0  0  0  0  0  0  0  0
   -5.5659   -0.8060    0.2157 H   0  0  0  0  0  0  0  0  0  0  0  0
   -5.8083   -2.2764   -0.5557 H   0  0  0  0  0  0  0  0  0  0  0  0
    0.5518   -2.8374    1.4908 H   0  0  0  0  0  0  0  0  0  0  0  0
    1.4134   -1.4570    2.3066 H   0  0  0  0  0  0  0  0  0  0  0  0
   -1.5849   -2.9797    3.3739 H   0  0  0  0  0  0  0  0  0  0  0  0
  1  2  1  0
  2  3  1  0
  3  4  2  0
  3  5  1  0
  5  6  2  0
  6  7  1  0
  7  8  2  0
  8  9  1  0
  9 10  2  0
 10 11  1  0
 11 12  2  0
 12 13  1  0
 13 14  2  0
  7 15  1  0
 15 16  1  0
 16 17  1  0
 17 18  1  0
 18 19  1  0
 19 20  1  0
 15 21  1  0
 21 22  2  0
 21 23  1  0
 23 24  1  0
 14  9  1  0
  1 25  1  0
  1 26  1  0
  1 27  1  0
  2 28  1  0
  5 29  1  0
  6 30  1  0
 10 31  1  0
 11 32  1  0
 12 33  1  0
 13 34  1  0
 14 35  1  0
 15 36  1  0
 16 37  1  0
 16 38  1  0
 17 39  1  0
 17 40  1  0
 18 41  1  0
 18 42  1  0
 19 43  1  0
 19 44  1  0
 20 45  1  0
 20 46  1  0
 23 47  1  0
 23 48  1  0
 24 49  1  0
M  END
$$$$
[H]c1c([H])c(-n2nc([H])n(C([H])([H])c3c([H])c([H])c(C(F)(F)F)c([H])c3C(F)(F)F)c2=O)c([H])c(C(F)(F)F)c1[H]
     RDKit          3D

 41 43  0  0  0  0  0  0  0  0999 V2000
   -3.3397   -1.1083    0.2637 C   0  0  0  0  0  0  0  0  0  0  0  0
   -2.9144   -2.2830    1.1043 C   0  0  0  0  0  0  0  0  0  0  0  0
   -1.8681   -1.9412    1.9202 F   0  0  0  0  0  0  0  0  0  0  0  0
   -2.6105   -3.3804    0.3096 F   0  0  0  0  0  0  0  0  0  0  0  0
   -3.9471   -2.6544    1.9336 F   0  0  0  0  0  0  0  0  0  0  0  0
   -4.6607   -0.6429    0.4256 C   0  0  0  0  0  0  0  0  0  0  0  0
   -5.1656    0.3968   -0.3098 C   0  0  0  0  0  0  0  0  0  0  0  0
   -6.5974    0.7872   -0.0983 C   0  0  0  0  0  0  0  0  0  0  0  0
   -6.9020    1.9945   -0.6825 F   0  0  0  0  0  0  0  0  0  0  0  0
   -6.8267    0.8314    1.2494 F   0  0  0  0  0  0  0  0  0  0  0  0
   -7.4266   -0.2190   -0.6251 F   0  0  0  0  0  0  0  0  0  0  0  0
   -4.3573    1.0186   -1.2448 C   0  0  0  0  0  0  0  0  0  0  0  0
   -3.0905    0.5677   -1.3949 C   0  0  0  0  0  0  0  0  0  0  0  0
   -2.5326   -0.4959   -0.6587 C   0  0  0  0  0  0  0  0  0  0  0  0
   -1.1728   -0.8242   -0.9259 C   0  0  0  0  0  0  0  0  0  0  0  0
   -0.1354    0.0671   -0.4530 N   0  0  0  0  0  0  0  0  0  0  0  0
    1.1524   -0.1826   -0.6168 C   0  0  0  0  0  0  0  0  0  0  0  0
    1.5846   -1.2355   -1.1682 O   0  0  0  0  0  0  0  0  0  0  0  0
    1.9000    0.8089   -0.1328 N   0  0  0  0  0  0  0  0  0  0  0  0
    3.3076    0.9557   -0.0534 C   0  0  0  0  0  0  0  0  0  0  0  0
    4.1001   -0.1916   -0.0711 C   0  0  0  0  0  0  0  0  0  0  0  0
    5.4648   -0.1828    0.0249 C   0  0  0  0  0  0  0  0  0  0  0  0
    6.1774   -1.4862   -0.0042 C   0  0  0  0  0  0  0  0  0  0  0  0
    6.8902   -1.5967    1.1684 F   0  0  0  0  0  0  0  0  0  0  0  0
    5.2472   -2.5319    0.0320 F   0  0  0  0  0  0  0  0  0  0  0  0
    6.9332   -1.6513   -1.1163 F   0  0  0  0  0  0  0  0  0  0  0  0
    6.1020    1.0480    0.1471 C   0  0  0  0  0  0  0  0  0  0  0  0
    5.3707    2.2332    0.1667 C   0  0  0  0  0  0  0  0  0  0  0  0
    3.9634    2.1526    0.0624 C   0  0  0  0  0  0  0  0  0  0  0  0
    1.0264    1.7030    0.3455 N   0  0  0  0  0  0  0  0  0  0  0  0
   -0.2568    1.2422    0.1461 C   0  0  0  0  0  0  0  0  0  0  0  0
   -5.2816   -1.1650    1.1457 H   0  0  0  0  0  0  0  0  0  0  0  0
   -4.7470    1.8650   -1.8265 H   0  0  0  0  0  0  0  0  0  0  0  0
   -2.4754    1.0832   -2.1136 H   0  0  0  0  0  0  0  0  0  0  0  0
   -0.8871   -1.8220   -0.3982 H   0  0  0  0  0  0  0  0  0  0  0  0
   -0.9969   -1.1039   -2.0099 H   0  0  0  0  0  0  0  0  0  0  0  0
    3.6163   -1.1411   -0.1496 H   0  0  0  0  0  0  0  0  0  0  0  0
    7.1761    1.0535    0.2342 H   0  0  0  0  0  0  0  0  0  0  0  0
    5.8889    3.1604    0.2823 H   0  0  0  0  0  0  0  0  0  0  0  0
    3.4343    3.0834    0.0931 H   0  0  0  0  0  0  0  0  0  0  0  0
   -1.1435    1.7872    0.4349 H   0  0  0  0  0  0  0  0  0  0  0  0
  1  2  1  0
  2  3  1  0
  2  4  1  0
  2  5  1  0
  1  6  2  0
  6  7  1  0
  7  8  1  0
  8  9  1  0
  8 10  1  0
  8 11  1  0
  7 12  2  0
 12 13  1  0
 13 14  2  0
 14 15  1  0
 15 16  1  0
 16 17  1  0
 17 18  2  0
 17 19  1  0
 19 20  1  0
 20 21  2  0
 21 22  1  0
 22 23  1  0
 23 24  1  0
 23 25  1  0
 23 26  1  0
 22 27  2  0
 27 28  1  0
 28 29  2  0
 19 30  1  0
 30 31  2  0
 14  1  1  0
 31 16  1  0
 29 20  1  0
  6 32  1  0
 12 33  1  0
 13 34  1  0
 15 35  1  0
 15 36  1  0
 21 37  1  0
 27 38  1  0
 28 39  1  0
 29 40  1  0
 31 41  1  0
M  END
$$$$
[H]c1c([H])c([C@@]2([H])N=C(N([H])[H])OC2([H])[H])c([H])c([H])c1C(F)(F)F
     RDKit          3D

 25 26  0  0  0  0  0  0  0  0999 V2000
   -3.8671   -1.3830   -0.0306 N   0  0  0  0  0  0  0  0  0  0  0  0
   -2.9001   -0.2927    0.0057 C   0  0  0  0  0  0  0  0  0  0  0  0
   -2.1902    0.1094   -0.9713 N   0  0  0  0  0  0  0  0  0  0  0  0
   -1.3435    1.2126   -0.5811 C   0  0  1  0  0  0  0  0  0  0  0  0
   -2.1046    1.7129    0.6218 C   0  0  0  0  0  0  0  0  0  0  0  0
   -2.6129    0.4673    1.1264 O   0  0  0  0  0  0  0  0  0  0  0  0
   -0.0128    0.6228   -0.2799 C   0  0  0  0  0  0  0  0  0  0  0  0
    0.7779    0.9469    0.7684 C   0  0  0  0  0  0  0  0  0  0  0  0
    2.0112    0.3612    0.9335 C   0  0  0  0  0  0  0  0  0  0  0  0
    2.5041   -0.5823    0.0452 C   0  0  0  0  0  0  0  0  0  0  0  0
    1.7087   -0.9214   -1.0216 C   0  0  0  0  0  0  0  0  0  0  0  0
    0.4798   -0.3293   -1.1758 C   0  0  0  0  0  0  0  0  0  0  0  0
    3.8855   -1.1719    0.2035 C   0  0  0  0  0  0  0  0  0  0  0  0
    4.0329   -1.7419    1.4193 F   0  0  0  0  0  0  0  0  0  0  0  0
    4.1184   -1.9910   -0.8706 F   0  0  0  0  0  0  0  0  0  0  0  0
    4.7413   -0.0575    0.1215 F   0  0  0  0  0  0  0  0  0  0  0  0
   -4.8315   -1.1231   -0.2709 H   0  0  0  0  0  0  0  0  0  0  0  0
   -3.6308   -2.3618    0.1694 H   0  0  0  0  0  0  0  0  0  0  0  0
   -1.2975    1.9892   -1.3897 H   0  0  0  0  0  0  0  0  0  0  0  0
   -1.5364    2.1751    1.4110 H   0  0  0  0  0  0  0  0  0  0  0  0
   -2.9477    2.3554    0.2795 H   0  0  0  0  0  0  0  0  0  0  0  0
    0.4313    1.6798    1.4865 H   0  0  0  0  0  0  0  0  0  0  0  0
    2.6459    0.6163    1.7686 H   0  0  0  0  0  0  0  0  0  0  0  0
    2.0783   -1.6762   -1.7413 H   0  0  0  0  0  0  0  0  0  0  0  0
   -0.1403   -0.6169   -2.0279 H   0  0  0  0  0  0  0  0  0  0  0  0
  1  2  1  0
  2  3  2  0
  3  4  1  0
  4  5  1  0
  5  6  1  0
  4  7  1  0
  7  8  2  0
  8  9  1  0
  9 10  2  0
 10 11  1  0
 11 12  2  0
 10 13  1  0
 13 14  1  0
 13 15  1  0
 13 16  1  0
  6  2  1  0
 12  7  1  0
  1 17  1  0
  1 18  1  0
  4 19  1  6
  5 20  1  0
  5 21  1  0
  8 22  1  0
  9 23  1  0
 11 24  1  0
 12 25  1  0
M  END
$$$$
[H]N=C(N([H])[H])N([H])C([H])([H])C([H])([H])C([H])([H])[C@@]([H])(C(=O)c1nc2c([H])c([H])c([H])c([H])c2s1)N([H])C(=O)[C@@]1([H])N(C(=O)[C@]([H])(N([H])C(=O)OC([H])([H])c2c([H])c([H])c([H])c([H])c2[H])C([H])([H])c2c([H])c([H])c([H])c([H])c2[H])C([H])([H])C([H])([H])C1([H])[H]
     RDKit          3D

 87 91  0  0  0  0  0  0  0  0999 V2000
   -8.4258   -3.3667   -0.5759 N   0  0  0  0  0  0  0  0  0  0  0  0
   -8.4170   -2.0182   -1.0078 C   0  0  0  0  0  0  0  0  0  0  0  0
   -9.5363   -1.5228   -1.4410 N   0  0  0  0  0  0  0  0  0  0  0  0
   -7.2253   -1.2409   -0.9850 N   0  0  0  0  0  0  0  0  0  0  0  0
   -5.9871   -1.9154   -0.7663 C   0  0  0  0  0  0  0  0  0  0  0  0
   -4.7664   -1.0502   -0.7598 C   0  0  0  0  0  0  0  0  0  0  0  0
   -4.8339   -0.0422    0.3388 C   0  0  0  0  0  0  0  0  0  0  0  0
   -3.6037    0.8421    0.3913 C   0  0  2  0  0  0  0  0  0  0  0  0
   -2.4260    0.0641    0.6147 N   0  0  0  0  0  0  0  0  0  0  0  0
   -1.3206   -0.6397    0.9086 C   0  0  0  0  0  0  0  0  0  0  0  0
   -0.7953   -0.6762    2.0838 O   0  0  0  0  0  0  0  0  0  0  0  0
   -0.6760   -1.4084   -0.1425 C   0  0  2  0  0  0  0  0  0  0  0  0
   -1.0744   -2.9136    0.0082 C   0  0  0  0  0  0  0  0  0  0  0  0
   -0.3501   -3.4446   -1.2094 C   0  0  0  0  0  0  0  0  0  0  0  0
    0.6526   -2.3434   -1.6104 C   0  0  0  0  0  0  0  0  0  0  0  0
    0.7263   -1.6359   -0.2884 N   0  0  0  0  0  0  0  0  0  0  0  0
    1.8731   -1.3226    0.3964 C   0  0  0  0  0  0  0  0  0  0  0  0
    1.6703   -0.4641    1.3988 O   0  0  0  0  0  0  0  0  0  0  0  0
    3.3099   -1.6657    0.3685 C   0  0  1  0  0  0  0  0  0  0  0  0
    3.6890   -2.5809   -0.8016 C   0  0  0  0  0  0  0  0  0  0  0  0
    5.1498   -2.9170   -0.8217 C   0  0  0  0  0  0  0  0  0  0  0  0
    6.0099   -2.1772   -1.6107 C   0  0  0  0  0  0  0  0  0  0  0  0
    7.3645   -2.3952   -1.6805 C   0  0  0  0  0  0  0  0  0  0  0  0
    7.9252   -3.4132   -0.9256 C   0  0  0  0  0  0  0  0  0  0  0  0
    7.0485   -4.1576   -0.1291 C   0  0  0  0  0  0  0  0  0  0  0  0
    5.6944   -3.9296   -0.0689 C   0  0  0  0  0  0  0  0  0  0  0  0
    4.2289   -0.7354    0.6584 N   0  0  0  0  0  0  0  0  0  0  0  0
    4.7345    0.1169    1.7100 C   0  0  0  0  0  0  0  0  0  0  0  0
    4.1379    0.0280    2.8039 O   0  0  0  0  0  0  0  0  0  0  0  0
    5.7862    0.9594    1.5806 O   0  0  0  0  0  0  0  0  0  0  0  0
    6.3724    1.8197    2.5085 C   0  0  0  0  0  0  0  0  0  0  0  0
    7.5399    2.4172    1.7833 C   0  0  0  0  0  0  0  0  0  0  0  0
    7.4168    2.6746    0.4554 C   0  0  0  0  0  0  0  0  0  0  0  0
    8.4869    3.1647   -0.3081 C   0  0  0  0  0  0  0  0  0  0  0  0
    9.7015    3.3961    0.3069 C   0  0  0  0  0  0  0  0  0  0  0  0
    9.8333    3.1415    1.6541 C   0  0  0  0  0  0  0  0  0  0  0  0
    8.7452    2.6499    2.3955 C   0  0  0  0  0  0  0  0  0  0  0  0
   -3.8839    1.9635    1.3090 C   0  0  0  0  0  0  0  0  0  0  0  0
   -3.1931    2.1056    2.3658 O   0  0  0  0  0  0  0  0  0  0  0  0
   -4.9409    2.9709    1.0725 C   0  0  0  0  0  0  0  0  0  0  0  0
   -5.8221    3.0884    0.1004 N   0  0  0  0  0  0  0  0  0  0  0  0
   -6.6473    4.1042    0.0702 C   0  0  0  0  0  0  0  0  0  0  0  0
   -7.6131    4.3307   -0.9313 C   0  0  0  0  0  0  0  0  0  0  0  0
   -8.3985    5.4389   -0.8660 C   0  0  0  0  0  0  0  0  0  0  0  0
   -8.3227    6.3817    0.1311 C   0  0  0  0  0  0  0  0  0  0  0  0
   -7.3914    6.1690    1.1113 C   0  0  0  0  0  0  0  0  0  0  0  0
   -6.5608    5.0305    1.0762 C   0  0  0  0  0  0  0  0  0  0  0  0
   -5.2836    4.3778    2.0156 S   0  0  0  0  0  0  0  0  0  0  0  0
   -8.3046   -4.1669   -1.2531 H   0  0  0  0  0  0  0  0  0  0  0  0
   -8.5412   -3.6138    0.4397 H   0  0  0  0  0  0  0  0  0  0  0  0
  -10.4048   -2.0717   -1.4713 H   0  0  0  0  0  0  0  0  0  0  0  0
   -7.3412   -0.2012   -1.1342 H   0  0  0  0  0  0  0  0  0  0  0  0
   -5.8555   -2.6723   -1.5935 H   0  0  0  0  0  0  0  0  0  0  0  0
   -6.0321   -2.5322    0.1762 H   0  0  0  0  0  0  0  0  0  0  0  0
   -3.8545   -1.6775   -0.6604 H   0  0  0  0  0  0  0  0  0  0  0  0
   -4.6884   -0.5619   -1.7695 H   0  0  0  0  0  0  0  0  0  0  0  0
   -5.7514    0.5468    0.1805 H   0  0  0  0  0  0  0  0  0  0  0  0
   -4.9754   -0.5861    1.3232 H   0  0  0  0  0  0  0  0  0  0  0  0
   -3.4626    1.3939   -0.6140 H   0  0  0  0  0  0  0  0  0  0  0  0
   -2.6227    0.3278    1.9606 H   0  0  0  0  0  0  0  0  0  0  0  0
   -1.0507   -1.0895   -1.1443 H   0  0  0  0  0  0  0  0  0  0  0  0
   -0.5000   -3.2136    0.9054 H   0  0  0  0  0  0  0  0  0  0  0  0
   -2.1347   -3.0710    0.0309 H   0  0  0  0  0  0  0  0  0  0  0  0
    0.1273   -4.4092   -1.0249 H   0  0  0  0  0  0  0  0  0  0  0  0
   -1.0782   -3.4679   -2.0225 H   0  0  0  0  0  0  0  0  0  0  0  0
    0.0735   -1.5772   -2.2353 H   0  0  0  0  0  0  0  0  0  0  0  0
    1.5059   -2.6898   -2.0623 H   0  0  0  0  0  0  0  0  0  0  0  0
    3.3828   -2.4693    1.2715 H   0  0  0  0  0  0  0  0  0  0  0  0
    3.0817   -3.4980   -0.7508 H   0  0  0  0  0  0  0  0  0  0  0  0
    3.5045   -2.0031   -1.7018 H   0  0  0  0  0  0  0  0  0  0  0  0
    5.5790   -1.3822   -2.2390 H   0  0  0  0  0  0  0  0  0  0  0  0
    7.9954   -1.7748   -2.3225 H   0  0  0  0  0  0  0  0  0  0  0  0
    9.0029   -3.6296   -0.9378 H   0  0  0  0  0  0  0  0  0  0  0  0
    7.4970   -4.9608    0.4600 H   0  0  0  0  0  0  0  0  0  0  0  0
    5.0478   -4.5370    0.5765 H   0  0  0  0  0  0  0  0  0  0  0  0
    4.8449   -0.4245   -0.2615 H   0  0  0  0  0  0  0  0  0  0  0  0
    6.7784    1.3601    3.4125 H   0  0  0  0  0  0  0  0  0  0  0  0
    5.6387    2.5837    2.8197 H   0  0  0  0  0  0  0  0  0  0  0  0
    6.4688    2.5012   -0.0571 H   0  0  0  0  0  0  0  0  0  0  0  0
    8.3742    3.3692   -1.3641 H   0  0  0  0  0  0  0  0  0  0  0  0
   10.5223    3.7641   -0.2954 H   0  0  0  0  0  0  0  0  0  0  0  0
   10.8034    3.3216    2.1211 H   0  0  0  0  0  0  0  0  0  0  0  0
    8.9115    2.4806    3.4379 H   0  0  0  0  0  0  0  0  0  0  0  0
   -7.7756    3.6587   -1.7629 H   0  0  0  0  0  0  0  0  0  0  0  0
   -9.1549    5.6525   -1.6485 H   0  0  0  0  0  0  0  0  0  0  0  0
   -8.9751    7.2270    0.1173 H   0  0  0  0  0  0  0  0  0  0  0  0
   -7.2383    6.8352    1.9323 H   0  0  0  0  0  0  0  0  0  0  0  0
  1  2  1  0
  2  3  2  3
  2  4  1  0
  4  5  1  0
  5  6  1  0
  6  7  1  0
  7  8  1  0
  8  9  1  0
  9 10  1  0
 10 11  2  0
 10 12  1  0
 12 13  1  0
 13 14  1  0
 14 15  1  0
 15 16  1  0
 16 17  1  0
 17 18  2  0
 17 19  1  0
 19 20  1  0
 20 21  1  0
 21 22  2  0
 22 23  1  0
 23 24  2  0
 24 25  1  0
 25 26  2  0
 19 27  1  0
 27 28  1  0
 28 29  2  0
 28 30  1  0
 30 31  1  0
 31 32  1  0
 32 33  2  0
 33 34  1  0
 34 35  2  0
 35 36  1  0
 36 37  2  0
  8 38  1  0
 38 39  2  0
 38 40  1  0
 40 41  2  0
 41 42  1  0
 42 43  2  0
 43 44  1  0
 44 45  2  0
 45 46  1  0
 46 47  2  0
 47 48  1  0
 16 12  1  0
 26 21  1  0
 37 32  1  0
 48 40  1  0
 47 42  1  0
  1 49  1  0
  1 50  1  0
  3 51  1  0
  4 52  1  0
  5 53  1  0
  5 54  1  0
  6 55  1  0
  6 56  1  0
  7 57  1  0
  7 58  1  0
  8 59  1  6
  9 60  1  0
 12 61  1  6
 13 62  1  0
 13 63  1  0
 14 64  1  0
 14 65  1  0
 15 66  1  0
 15 67  1  0
 19 68  1  1
 20 69  1  0
 20 70  1  0
 22 71  1  0
 23 72  1  0
 24 73  1  0
 25 74  1  0
 26 75  1  0
 27 76  1  0
 31 77  1  0
 31 78  1  0
 33 79  1  0
 34 80  1  0
 35 81  1  0
 36 82  1  0
 37 83  1  0
 43 84  1  0
 44 85  1  0
 45 86  1  0
 46 87  1  0
M  END
$$$$
[H]c1c([H])c([H])c([C@]2([H])N(S(=O)(=O)c3c(C(F)(F)F)c([H])c(C(F)(F)F)c([H])c3C(F)(F)F)C([H])([H])[C@@]([H])(c3c([H])c([H])c(Cl)c([H])c3[H])C2([H])[H])c([H])c1[H]
     RDKit          3D

 56 59  0  0  0  0  0  0  0  0999 V2000
    3.4649   -0.1779    1.2291 C   0  0  0  0  0  0  0  0  0  0  0  0
    3.3124   -0.1765    2.6670 C   0  0  0  0  0  0  0  0  0  0  0  0
    4.5092   -0.8095    3.1971 F   0  0  0  0  0  0  0  0  0  0  0  0
    2.3842   -0.9998    3.2709 F   0  0  0  0  0  0  0  0  0  0  0  0
    3.4024    1.0988    3.2482 F   0  0  0  0  0  0  0  0  0  0  0  0
    4.5814   -0.8204    0.6637 C   0  0  0  0  0  0  0  0  0  0  0  0
    4.8921   -0.8441   -0.6509 C   0  0  0  0  0  0  0  0  0  0  0  0
    6.0919   -1.5373   -1.1824 C   0  0  0  0  0  0  0  0  0  0  0  0
    6.9352   -1.8974   -0.1385 F   0  0  0  0  0  0  0  0  0  0  0  0
    5.7203   -2.6203   -1.9388 F   0  0  0  0  0  0  0  0  0  0  0  0
    6.7713   -0.6648   -1.9990 F   0  0  0  0  0  0  0  0  0  0  0  0
    4.0490   -0.1890   -1.4922 C   0  0  0  0  0  0  0  0  0  0  0  0
    2.9031    0.4925   -1.0635 C   0  0  0  0  0  0  0  0  0  0  0  0
    2.1387    1.2571   -2.0530 C   0  0  0  0  0  0  0  0  0  0  0  0
    2.1428    2.6233   -1.7879 F   0  0  0  0  0  0  0  0  0  0  0  0
    1.0081    0.7560   -2.5692 F   0  0  0  0  0  0  0  0  0  0  0  0
    2.9795    1.2857   -3.2360 F   0  0  0  0  0  0  0  0  0  0  0  0
    2.6324    0.4769    0.3210 C   0  0  0  0  0  0  0  0  0  0  0  0
    1.1884    1.1623    0.8873 S   0  0  0  0  0  0  0  0  0  0  0  0
    1.2199    2.6298    1.1807 O   0  0  0  0  0  0  0  0  0  0  0  0
    0.8183    0.5508    2.2405 O   0  0  0  0  0  0  0  0  0  0  0  0
   -0.2829    0.7073    0.0406 N   0  0  0  0  0  0  0  0  0  0  0  0
   -0.4560   -0.7717    0.1760 C   0  0  0  0  0  0  0  0  0  0  0  0
   -1.9738   -0.8119   -0.0533 C   0  0  1  0  0  0  0  0  0  0  0  0
   -2.5880   -2.1198   -0.0551 C   0  0  0  0  0  0  0  0  0  0  0  0
   -2.4974   -2.9948    1.0002 C   0  0  0  0  0  0  0  0  0  0  0  0
   -3.1190   -4.2205    0.9130 C   0  0  0  0  0  0  0  0  0  0  0  0
   -3.8400   -4.6070   -0.2136 C   0  0  0  0  0  0  0  0  0  0  0  0
   -4.6126   -6.1548   -0.3389 Cl  0  0  0  0  0  0  0  0  0  0  0  0
   -3.9291   -3.7305   -1.2644 C   0  0  0  0  0  0  0  0  0  0  0  0
   -3.3088   -2.5103   -1.1708 C   0  0  0  0  0  0  0  0  0  0  0  0
   -2.2885    0.0716    1.1613 C   0  0  0  0  0  0  0  0  0  0  0  0
   -1.4094    1.2396    0.8360 C   0  0  2  0  0  0  0  0  0  0  0  0
   -2.0829    2.3523    0.2270 C   0  0  0  0  0  0  0  0  0  0  0  0
   -1.4268    3.2306   -0.5987 C   0  0  0  0  0  0  0  0  0  0  0  0
   -1.9865    4.3471   -1.1789 C   0  0  0  0  0  0  0  0  0  0  0  0
   -3.2966    4.6221   -0.9204 C   0  0  0  0  0  0  0  0  0  0  0  0
   -4.0285    3.7752   -0.0923 C   0  0  0  0  0  0  0  0  0  0  0  0
   -3.4100    2.6538    0.4669 C   0  0  0  0  0  0  0  0  0  0  0  0
    5.2768   -1.3479    1.3509 H   0  0  0  0  0  0  0  0  0  0  0  0
    4.2744   -0.2005   -2.5661 H   0  0  0  0  0  0  0  0  0  0  0  0
    0.0583   -1.2811   -0.6199 H   0  0  0  0  0  0  0  0  0  0  0  0
   -0.2822   -1.1108    1.2065 H   0  0  0  0  0  0  0  0  0  0  0  0
   -2.2232   -0.2142   -0.9131 H   0  0  0  0  0  0  0  0  0  0  0  0
   -1.9382   -2.7080    1.8758 H   0  0  0  0  0  0  0  0  0  0  0  0
   -3.0748   -4.9574    1.7062 H   0  0  0  0  0  0  0  0  0  0  0  0
   -4.5115   -4.0224   -2.1882 H   0  0  0  0  0  0  0  0  0  0  0  0
   -3.3958   -1.8124   -2.0217 H   0  0  0  0  0  0  0  0  0  0  0  0
   -3.3259    0.2281    1.3431 H   0  0  0  0  0  0  0  0  0  0  0  0
   -1.8698   -0.4432    2.0784 H   0  0  0  0  0  0  0  0  0  0  0  0
   -1.0257    1.6149    1.8576 H   0  0  0  0  0  0  0  0  0  0  0  0
   -0.4100    3.0536   -0.8708 H   0  0  0  0  0  0  0  0  0  0  0  0
   -1.3755    4.9909   -1.8207 H   0  0  0  0  0  0  0  0  0  0  0  0
   -3.7483    5.5352   -1.3654 H   0  0  0  0  0  0  0  0  0  0  0  0
   -5.0426    3.9501    0.1282 H   0  0  0  0  0  0  0  0  0  0  0  0
   -3.9945    2.0509    1.0907 H   0  0  0  0  0  0  0  0  0  0  0  0
  1  2  1  0
  2  3  1  0
  2  4  1  0
  2  5  1  0
  1  6  2  0
  6  7  1  0
  7  8  1  0
  8  9  1  0
  8 10  1  0
  8 11  1  0
  7 12  2  0
 12 13  1  0
 13 14  1  0
 14 15  1  0
 14 16  1  0
 14 17  1  0
 13 18  2  0
 18 19  1  0
 19 20  2  0
 19 21  2  0
 19 22  1  0
 22 23  1  0
 23 24  1  0
 24 25  1  0
 25 26  2  0
 26 27  1  0
 27 28  2  0
 28 29  1  0
 28 30  1  0
 30 31  2  0
 24 32  1  0
 32 33  1  0
 33 34  1  0
 34 35  2  0
 35 36  1  0
 36 37  2  0
 37 38  1  0
 38 39  2  0
 18  1  1  0
 33 22  1  0
 39 34  1  0
 31 25  1  0
  6 40  1  0
 12 41  1  0
 23 42  1  0
 23 43  1  0
 24 44  1  6
 26 45  1  0
 27 46  1  0
 30 47  1  0
 31 48  1  0
 32 49  1  0
 32 50  1  0
 33 51  1  1
 35 52  1  0
 36 53  1  0
 37 54  1  0
 38 55  1  0
 39 56  1  0
M  END
$$$$
[H]c1c([H])c(C(F)(F)F)c([H])c([H])c1C(=O)N1C([H])([H])C([H])([H])C([H])([H])[C@@]1([H])C(=O)N([H])[C@]([H])(C([H])([H])[H])C(F)(F)F
     RDKit          3D

 42 43  0  0  0  0  0  0  0  0999 V2000
   -4.1647    1.9940   -1.1845 C   0  0  0  0  0  0  0  0  0  0  0  0
   -4.4987    0.6551   -0.5572 C   0  0  1  0  0  0  0  0  0  0  0  0
   -3.4499   -0.2866   -0.4532 N   0  0  0  0  0  0  0  0  0  0  0  0
   -2.0816   -0.1756   -0.7429 C   0  0  0  0  0  0  0  0  0  0  0  0
   -1.6397    0.9492   -1.1331 O   0  0  0  0  0  0  0  0  0  0  0  0
   -1.1282   -1.2789   -0.6294 C   0  0  2  0  0  0  0  0  0  0  0  0
   -1.4537   -2.2978    0.4426 C   0  0  0  0  0  0  0  0  0  0  0  0
   -1.0587   -1.5431    1.6962 C   0  0  0  0  0  0  0  0  0  0  0  0
    0.1572   -0.7617    1.2141 C   0  0  0  0  0  0  0  0  0  0  0  0
    0.1968   -0.8520   -0.2238 N   0  0  0  0  0  0  0  0  0  0  0  0
    1.2382   -0.5627   -1.1214 C   0  0  0  0  0  0  0  0  0  0  0  0
    1.0277   -0.5998   -2.3856 O   0  0  0  0  0  0  0  0  0  0  0  0
    2.5785   -0.2216   -0.6900 C   0  0  0  0  0  0  0  0  0  0  0  0
    3.4520   -1.1266   -0.1315 C   0  0  0  0  0  0  0  0  0  0  0  0
    4.7145   -0.7291    0.2636 C   0  0  0  0  0  0  0  0  0  0  0  0
    5.1456    0.5846    0.1193 C   0  0  0  0  0  0  0  0  0  0  0  0
    4.2534    1.4957   -0.4456 C   0  0  0  0  0  0  0  0  0  0  0  0
    2.9868    1.0992   -0.8482 C   0  0  0  0  0  0  0  0  0  0  0  0
    6.5087    1.0086    0.5476 C   0  0  0  0  0  0  0  0  0  0  0  0
    6.5886    2.3972    0.5173 F   0  0  0  0  0  0  0  0  0  0  0  0
    6.8752    0.4572    1.7417 F   0  0  0  0  0  0  0  0  0  0  0  0
    7.4150    0.5601   -0.4421 F   0  0  0  0  0  0  0  0  0  0  0  0
   -5.2702    0.9312    0.6937 C   0  0  0  0  0  0  0  0  0  0  0  0
   -4.5568    1.7479    1.5805 F   0  0  0  0  0  0  0  0  0  0  0  0
   -5.5185   -0.2706    1.3792 F   0  0  0  0  0  0  0  0  0  0  0  0
   -6.4939    1.4976    0.4571 F   0  0  0  0  0  0  0  0  0  0  0  0
   -3.6630    1.8696   -2.1594 H   0  0  0  0  0  0  0  0  0  0  0  0
   -3.7061    2.6803   -0.4571 H   0  0  0  0  0  0  0  0  0  0  0  0
   -5.1679    2.4392   -1.4572 H   0  0  0  0  0  0  0  0  0  0  0  0
   -5.1926    0.1960   -1.3739 H   0  0  0  0  0  0  0  0  0  0  0  0
   -3.7550   -1.2418   -0.0806 H   0  0  0  0  0  0  0  0  0  0  0  0
   -1.0394   -1.8259   -1.6267 H   0  0  0  0  0  0  0  0  0  0  0  0
   -2.4773   -2.6647    0.4434 H   0  0  0  0  0  0  0  0  0  0  0  0
   -0.7143   -3.1457    0.2998 H   0  0  0  0  0  0  0  0  0  0  0  0
   -1.8648   -0.8291    1.9119 H   0  0  0  0  0  0  0  0  0  0  0  0
   -0.7930   -2.2217    2.5220 H   0  0  0  0  0  0  0  0  0  0  0  0
    1.0692   -1.0739    1.7401 H   0  0  0  0  0  0  0  0  0  0  0  0
   -0.0137    0.3447    1.4174 H   0  0  0  0  0  0  0  0  0  0  0  0
    3.1491   -2.1539   -0.0158 H   0  0  0  0  0  0  0  0  0  0  0  0
    5.4175   -1.4483    0.6961 H   0  0  0  0  0  0  0  0  0  0  0  0
    4.5837    2.5427   -0.5601 H   0  0  0  0  0  0  0  0  0  0  0  0
    2.3442    1.8613   -1.2724 H   0  0  0  0  0  0  0  0  0  0  0  0
  1  2  1  0
  2  3  1  0
  3  4  1  0
  4  5  2  0
  4  6  1  0
  6  7  1  0
  7  8  1  0
  8  9  1  0
  9 10  1  0
 10 11  1  0
 11 12  2  0
 11 13  1  0
 13 14  2  0
 14 15  1  0
 15 16  2  0
 16 17  1  0
 17 18  2  0
 16 19  1  0
 19 20  1  0
 19 21  1  0
 19 22  1  0
  2 23  1  0
 23 24  1  0
 23 25  1  0
 23 26  1  0
 10  6  1  0
 18 13  1  0
  1 27  1  0
  1 28  1  0
  1 29  1  0
  2 30  1  6
  3 31  1  0
  6 32  1  6
  7 33  1  0
  7 34  1  0
  8 35  1  0
  8 36  1  0
  9 37  1  0
  9 38  1  0
 14 39  1  0
 15 40  1  0
 17 41  1  0
 18 42  1  0
M  END
$$$$
[H]c1c([H])c([H])c2c(c1[H])c1c3c(c4c5c([H])c([H])c([H])c([H])c5n5c4c1n2[C@]1([H])O[C@]5(C([H])([H])[H])[C@@]([H])(OC([H])([H])[H])[C@]([H])(N([H])C([H])([H])[H])C1([H])[H])C([H])([H])N([H])C3=O
     RDKit          3D

 61 68  0  0  0  0  0  0  0  0999 V2000
   -5.0032    2.3015   -0.0847 C   0  0  0  0  0  0  0  0  0  0  0  0
   -4.2911    1.1206   -0.5239 N   0  0  0  0  0  0  0  0  0  0  0  0
   -3.1564    0.9314    0.3042 C   0  0  2  0  0  0  0  0  0  0  0  0
   -2.1540    2.1226    0.1663 C   0  0  0  0  0  0  0  0  0  0  0  0
   -0.9665    1.4540   -0.0205 C   0  0  1  0  0  0  0  0  0  0  0  0
   -1.1415    0.7448   -1.1981 O   0  0  0  0  0  0  0  0  0  0  0  0
   -1.4119   -0.5987   -0.7868 C   0  0  2  0  0  0  0  0  0  0  0  0
   -1.8712   -1.2254   -2.1322 C   0  0  0  0  0  0  0  0  0  0  0  0
   -2.4889   -0.4501    0.1598 C   0  0  1  0  0  0  0  0  0  0  0  0
   -2.3890   -1.1153    1.3880 O   0  0  0  0  0  0  0  0  0  0  0  0
   -3.3269   -2.1274    1.5521 C   0  0  0  0  0  0  0  0  0  0  0  0
   -0.1378   -1.2020   -0.4914 N   0  0  0  0  0  0  0  0  0  0  0  0
    0.1616   -2.5344   -0.6109 C   0  0  0  0  0  0  0  0  0  0  0  0
   -0.5901   -3.6465   -0.8619 C   0  0  0  0  0  0  0  0  0  0  0  0
    0.0056   -4.9014   -0.9123 C   0  0  0  0  0  0  0  0  0  0  0  0
    1.3589   -5.0700   -0.7130 C   0  0  0  0  0  0  0  0  0  0  0  0
    2.1437   -3.9569   -0.4556 C   0  0  0  0  0  0  0  0  0  0  0  0
    1.5172   -2.7445   -0.4151 C   0  0  0  0  0  0  0  0  0  0  0  0
    2.0596   -1.5148   -0.1645 C   0  0  0  0  0  0  0  0  0  0  0  0
    3.3310   -1.0167    0.0798 C   0  0  0  0  0  0  0  0  0  0  0  0
    4.6039   -1.7769    0.1721 C   0  0  0  0  0  0  0  0  0  0  0  0
    5.6037   -0.7850    0.4503 N   0  0  0  0  0  0  0  0  0  0  0  0
    5.0034    0.5280    0.5134 C   0  0  0  0  0  0  0  0  0  0  0  0
    5.7188    1.5160    0.7371 O   0  0  0  0  0  0  0  0  0  0  0  0
    3.6006    0.3262    0.2783 C   0  0  0  0  0  0  0  0  0  0  0  0
    2.5644    1.2461    0.2408 C   0  0  0  0  0  0  0  0  0  0  0  0
    2.4247    2.5831    0.4378 C   0  0  0  0  0  0  0  0  0  0  0  0
    3.2960    3.5951    0.7015 C   0  0  0  0  0  0  0  0  0  0  0  0
    2.7602    4.8881    0.8432 C   0  0  0  0  0  0  0  0  0  0  0  0
    1.4157    5.1498    0.7252 C   0  0  0  0  0  0  0  0  0  0  0  0
    0.5372    4.1127    0.4564 C   0  0  0  0  0  0  0  0  0  0  0  0
    1.0796    2.8483    0.3203 C   0  0  0  0  0  0  0  0  0  0  0  0
    0.4024    1.7469    0.0621 N   0  0  0  0  0  0  0  0  0  0  0  0
    1.3106    0.7318   -0.0025 C   0  0  0  0  0  0  0  0  0  0  0  0
    1.0507   -0.6266   -0.2113 C   0  0  0  0  0  0  0  0  0  0  0  0
   -4.4222    3.2206   -0.0758 H   0  0  0  0  0  0  0  0  0  0  0  0
   -5.9751    2.4312   -0.6421 H   0  0  0  0  0  0  0  0  0  0  0  0
   -5.3325    2.1331    0.9827 H   0  0  0  0  0  0  0  0  0  0  0  0
   -4.9231    0.3185   -0.4524 H   0  0  0  0  0  0  0  0  0  0  0  0
   -3.5204    0.9543    1.3717 H   0  0  0  0  0  0  0  0  0  0  0  0
   -2.2319    2.7634    1.0681 H   0  0  0  0  0  0  0  0  0  0  0  0
   -2.5549    2.7584   -0.6810 H   0  0  0  0  0  0  0  0  0  0  0  0
   -1.0177    0.7572    0.9341 H   0  0  0  0  0  0  0  0  0  0  0  0
   -2.1640   -0.4180   -2.8609 H   0  0  0  0  0  0  0  0  0  0  0  0
   -1.0623   -1.7738   -2.6232 H   0  0  0  0  0  0  0  0  0  0  0  0
   -2.8063   -1.7859   -1.9703 H   0  0  0  0  0  0  0  0  0  0  0  0
   -3.3692   -1.0206   -0.3155 H   0  0  0  0  0  0  0  0  0  0  0  0
   -4.3685   -1.7465    1.5031 H   0  0  0  0  0  0  0  0  0  0  0  0
   -3.1360   -2.7642    2.4105 H   0  0  0  0  0  0  0  0  0  0  0  0
   -3.2309   -2.7727    0.6280 H   0  0  0  0  0  0  0  0  0  0  0  0
   -1.6587   -3.5713   -1.0137 H   0  0  0  0  0  0  0  0  0  0  0  0
   -0.5879   -5.7740   -1.1105 H   0  0  0  0  0  0  0  0  0  0  0  0
    1.8233   -6.0462   -0.7522 H   0  0  0  0  0  0  0  0  0  0  0  0
    3.2016   -4.0714   -0.2980 H   0  0  0  0  0  0  0  0  0  0  0  0
    4.5688   -2.4736    1.0276 H   0  0  0  0  0  0  0  0  0  0  0  0
    4.8295   -2.3223   -0.7651 H   0  0  0  0  0  0  0  0  0  0  0  0
    6.6092   -1.0259    0.5823 H   0  0  0  0  0  0  0  0  0  0  0  0
    4.3503    3.4578    0.8021 H   0  0  0  0  0  0  0  0  0  0  0  0
    3.4660    5.6873    1.0540 H   0  0  0  0  0  0  0  0  0  0  0  0
    1.0161    6.1615    0.8387 H   0  0  0  0  0  0  0  0  0  0  0  0
   -0.5241    4.2689    0.3538 H   0  0  0  0  0  0  0  0  0  0  0  0
  1  2  1  0
  2  3  1  0
  3  4  1  0
  4  5  1  0
  5  6  1  0
  6  7  1  0
  7  8  1  6
  7  9  1  0
  9 10  1  0
 10 11  1  0
  7 12  1  0
 12 13  1  0
 13 14  2  0
 14 15  1  0
 15 16  2  0
 16 17  1  0
 17 18  2  0
 18 19  1  0
 19 20  2  0
 20 21  1  0
 21 22  1  0
 22 23  1  0
 23 24  2  0
 23 25  1  0
 25 26  2  0
 26 27  1  0
 27 28  2  0
 28 29  1  0
 29 30  2  0
 30 31  1  0
 31 32  2  0
 32 33  1  0
 33 34  1  0
 34 35  2  0
  9  3  1  0
 35 12  1  0
 33  5  1  0
 18 13  1  0
 35 19  1  0
 25 20  1  0
 34 26  1  0
 32 27  1  0
  1 36  1  0
  1 37  1  0
  1 38  1  0
  2 39  1  0
  3 40  1  1
  4 41  1  0
  4 42  1  0
  5 43  1  1
  8 44  1  0
  8 45  1  0
  8 46  1  0
  9 47  1  6
 11 48  1  0
 11 49  1  0
 11 50  1  0
 14 51  1  0
 15 52  1  0
 16 53  1  0
 17 54  1  0
 21 55  1  0
 21 56  1  0
 22 57  1  0
 28 58  1  0
 29 59  1  0
 30 60  1  0
 31 61  1  0
M  END
$$$$
[H]c1c([H])c(C(=O)N([H])c2nc3c([H])c([H])c(Cl)c([H])c3s2)c([H])c(OC([H])([H])C2([H])C([H])([H])C2([H])[H])c1OC([H])(F)F
     RDKit          3D

 43 46  0  0  0  0  0  0  0  0999 V2000
   -4.8921   -4.8517   -1.7246 F   0  0  0  0  0  0  0  0  0  0  0  0
   -4.0266   -4.5337   -0.6831 C   0  0  0  0  0  0  0  0  0  0  0  0
   -4.6711   -4.9892    0.4754 F   0  0  0  0  0  0  0  0  0  0  0  0
   -3.8529   -3.1629   -0.5428 O   0  0  0  0  0  0  0  0  0  0  0  0
   -2.6638   -2.4738   -0.5046 C   0  0  0  0  0  0  0  0  0  0  0  0
   -1.4461   -3.0915   -0.6057 C   0  0  0  0  0  0  0  0  0  0  0  0
   -0.2595   -2.3715   -0.5641 C   0  0  0  0  0  0  0  0  0  0  0  0
   -0.3154   -1.0165   -0.4191 C   0  0  0  0  0  0  0  0  0  0  0  0
   -1.5627   -0.4027   -0.3177 C   0  0  0  0  0  0  0  0  0  0  0  0
   -2.7575   -1.0672   -0.3527 C   0  0  0  0  0  0  0  0  0  0  0  0
   -3.9283   -0.5116   -0.2577 O   0  0  0  0  0  0  0  0  0  0  0  0
   -4.7801    0.4826   -0.1155 C   0  0  0  0  0  0  0  0  0  0  0  0
   -4.8047    1.3158    1.1341 C   0  0  0  0  0  0  0  0  0  0  0  0
   -3.6820    2.1238    1.6244 C   0  0  0  0  0  0  0  0  0  0  0  0
   -4.8333    2.8302    1.0016 C   0  0  0  0  0  0  0  0  0  0  0  0
    0.9017   -0.2125   -0.3695 C   0  0  0  0  0  0  0  0  0  0  0  0
    0.8451    1.0453   -0.2351 O   0  0  0  0  0  0  0  0  0  0  0  0
    2.1799   -0.8072   -0.4692 N   0  0  0  0  0  0  0  0  0  0  0  0
    3.3244    0.0789   -0.4088 C   0  0  0  0  0  0  0  0  0  0  0  0
    4.6049   -0.2311   -0.4785 N   0  0  0  0  0  0  0  0  0  0  0  0
    5.5031    0.7104   -0.4052 C   0  0  0  0  0  0  0  0  0  0  0  0
    6.9024    0.5185   -0.4659 C   0  0  0  0  0  0  0  0  0  0  0  0
    7.7290    1.5882   -0.3771 C   0  0  0  0  0  0  0  0  0  0  0  0
    7.3079    2.8901   -0.2276 C   0  0  0  0  0  0  0  0  0  0  0  0
    8.4822    4.1645   -0.1272 Cl  0  0  0  0  0  0  0  0  0  0  0  0
    5.9450    3.0822   -0.1679 C   0  0  0  0  0  0  0  0  0  0  0  0
    5.0602    1.9984   -0.2566 C   0  0  0  0  0  0  0  0  0  0  0  0
    3.3676    1.7779   -0.2309 S   0  0  0  0  0  0  0  0  0  0  0  0
   -3.1179   -5.1379   -0.7737 H   0  0  0  0  0  0  0  0  0  0  0  0
   -1.3515   -4.1510   -0.7208 H   0  0  0  0  0  0  0  0  0  0  0  0
    0.6958   -2.8704   -0.6448 H   0  0  0  0  0  0  0  0  0  0  0  0
   -1.5480    0.6595   -0.2166 H   0  0  0  0  0  0  0  0  0  0  0  0
   -5.8702    0.2127   -0.3760 H   0  0  0  0  0  0  0  0  0  0  0  0
   -4.5851    1.2475   -0.9601 H   0  0  0  0  0  0  0  0  0  0  0  0
   -5.5654    0.9761    1.9226 H   0  0  0  0  0  0  0  0  0  0  0  0
   -3.5601    2.1806    2.7466 H   0  0  0  0  0  0  0  0  0  0  0  0
   -2.7375    2.1244    1.0936 H   0  0  0  0  0  0  0  0  0  0  0  0
   -5.4359    3.4422    1.6717 H   0  0  0  0  0  0  0  0  0  0  0  0
   -4.6508    3.2828    0.0039 H   0  0  0  0  0  0  0  0  0  0  0  0
    2.3736   -1.8254   -0.5822 H   0  0  0  0  0  0  0  0  0  0  0  0
    7.3341   -0.4711   -0.5828 H   0  0  0  0  0  0  0  0  0  0  0  0
    8.8118    1.4003   -0.4282 H   0  0  0  0  0  0  0  0  0  0  0  0
    5.5298    4.0461   -0.0543 H   0  0  0  0  0  0  0  0  0  0  0  0
  1  2  1  0
  2  3  1  0
  2  4  1  0
  4  5  1  0
  5  6  2  0
  6  7  1  0
  7  8  2  0
  8  9  1  0
  9 10  2  0
 10 11  1  0
 11 12  1  0
 12 13  1  0
 13 14  1  0
 14 15  1  0
  8 16  1  0
 16 17  2  0
 16 18  1  0
 18 19  1  0
 19 20  2  0
 20 21  1  0
 21 22  2  0
 22 23  1  0
 23 24  2  0
 24 25  1  0
 24 26  1  0
 26 27  2  0
 27 28  1  0
 10  5  1  0
 15 13  1  0
 28 19  1  0
 27 21  1  0
  2 29  1  0
  6 30  1  0
  7 31  1  0
  9 32  1  0
 12 33  1  0
 12 34  1  0
 13 35  1  0
 14 36  1  0
 14 37  1  0
 15 38  1  0
 15 39  1  0
 18 40  1  0
 22 41  1  0
 23 42  1  0
 26 43  1  0
M  END
$$$$
[H]c1c([H])c([H])c(C([H])([H])OC(=O)N([H])[C@]([H])(C(=O)N([H])[C@]([H])(C(=O)C(=O)N([H])C2(C#N)C([H])([H])C2([H])[H])C([H])([H])c2c([H])c([H])c([H])c([H])c2[H])C([H])([H])C([H])(C([H])([H])[H])C([H])([H])[H])c([H])c1[H]
     RDKit          3D

 69 71  0  0  0  0  0  0  0  0999 V2000
    0.9998   -2.7777    1.9199 C   0  0  0  0  0  0  0  0  0  0  0  0
    0.9300   -1.4588    2.6148 C   0  0  0  0  0  0  0  0  0  0  0  0
   -0.4710   -1.0924    2.9556 C   0  0  0  0  0  0  0  0  0  0  0  0
    1.7428   -0.3632    2.0582 C   0  0  0  0  0  0  0  0  0  0  0  0
    1.5933    0.0702    0.6541 C   0  0  2  0  0  0  0  0  0  0  0  0
    2.5557    1.1974    0.4396 N   0  0  0  0  0  0  0  0  0  0  0  0
    3.6590    1.1194   -0.4098 C   0  0  0  0  0  0  0  0  0  0  0  0
    3.9240    0.0791   -1.0599 O   0  0  0  0  0  0  0  0  0  0  0  0
    4.4959    2.2155   -0.5520 O   0  0  0  0  0  0  0  0  0  0  0  0
    5.6246    2.2429   -1.3713 C   0  0  0  0  0  0  0  0  0  0  0  0
    6.6428    1.2630   -0.9868 C   0  0  0  0  0  0  0  0  0  0  0  0
    7.6526    0.9148   -1.8896 C   0  0  0  0  0  0  0  0  0  0  0  0
    8.6387    0.0004   -1.5514 C   0  0  0  0  0  0  0  0  0  0  0  0
    8.6432   -0.5892   -0.3062 C   0  0  0  0  0  0  0  0  0  0  0  0
    7.6480   -0.2414    0.5735 C   0  0  0  0  0  0  0  0  0  0  0  0
    6.6477    0.6761    0.2524 C   0  0  0  0  0  0  0  0  0  0  0  0
    0.3428    0.5332    0.1239 C   0  0  0  0  0  0  0  0  0  0  0  0
    0.2536    1.8155   -0.1173 O   0  0  0  0  0  0  0  0  0  0  0  0
   -0.8475   -0.1749   -0.2031 N   0  0  0  0  0  0  0  0  0  0  0  0
   -2.0123    0.4812   -0.7456 C   0  0  1  0  0  0  0  0  0  0  0  0
   -2.3663   -0.0377   -2.1187 C   0  0  0  0  0  0  0  0  0  0  0  0
   -2.6422   -1.4697   -2.1583 C   0  0  0  0  0  0  0  0  0  0  0  0
   -3.9177   -1.9176   -1.9353 C   0  0  0  0  0  0  0  0  0  0  0  0
   -4.2460   -3.2610   -1.9571 C   0  0  0  0  0  0  0  0  0  0  0  0
   -3.2631   -4.1893   -2.2110 C   0  0  0  0  0  0  0  0  0  0  0  0
   -1.9984   -3.7427   -2.4323 C   0  0  0  0  0  0  0  0  0  0  0  0
   -1.6623   -2.4195   -2.4133 C   0  0  0  0  0  0  0  0  0  0  0  0
   -3.2022    0.4934    0.0876 C   0  0  0  0  0  0  0  0  0  0  0  0
   -3.3441   -0.3219    1.0222 O   0  0  0  0  0  0  0  0  0  0  0  0
   -4.2872    1.4636   -0.1202 C   0  0  0  0  0  0  0  0  0  0  0  0
   -4.1724    2.2697   -1.0504 O   0  0  0  0  0  0  0  0  0  0  0  0
   -5.4023    1.4580    0.7267 N   0  0  0  0  0  0  0  0  0  0  0  0
   -6.4933    2.3506    0.6340 C   0  0  0  0  0  0  0  0  0  0  0  0
   -6.1675    3.8168    0.7335 C   0  0  0  0  0  0  0  0  0  0  0  0
   -6.8302    3.2567   -0.4957 C   0  0  0  0  0  0  0  0  0  0  0  0
   -7.6684    1.9183    1.4497 C   0  0  0  0  0  0  0  0  0  0  0  0
   -8.5677    1.5838    2.0915 N   0  0  0  0  0  0  0  0  0  0  0  0
    1.9265   -2.8634    1.2935 H   0  0  0  0  0  0  0  0  0  0  0  0
    1.0213   -3.6458    2.5936 H   0  0  0  0  0  0  0  0  0  0  0  0
    0.1040   -2.9374    1.2563 H   0  0  0  0  0  0  0  0  0  0  0  0
    1.4532   -1.6965    3.6468 H   0  0  0  0  0  0  0  0  0  0  0  0
   -1.2086   -1.7106    2.3684 H   0  0  0  0  0  0  0  0  0  0  0  0
   -0.6958   -1.3447    4.0249 H   0  0  0  0  0  0  0  0  0  0  0  0
   -0.7199   -0.0227    2.7979 H   0  0  0  0  0  0  0  0  0  0  0  0
    1.5023    0.5573    2.7000 H   0  0  0  0  0  0  0  0  0  0  0  0
    2.8618   -0.5350    2.2488 H   0  0  0  0  0  0  0  0  0  0  0  0
    1.9593   -0.7820    0.0132 H   0  0  0  0  0  0  0  0  0  0  0  0
    2.3394    2.0557    0.9765 H   0  0  0  0  0  0  0  0  0  0  0  0
    6.0710    3.2606   -1.3148 H   0  0  0  0  0  0  0  0  0  0  0  0
    5.3694    2.0786   -2.4510 H   0  0  0  0  0  0  0  0  0  0  0  0
    7.6230    1.3928   -2.8531 H   0  0  0  0  0  0  0  0  0  0  0  0
    9.4168   -0.2606   -2.2634 H   0  0  0  0  0  0  0  0  0  0  0  0
    9.3846   -1.3062    0.0131 H   0  0  0  0  0  0  0  0  0  0  0  0
    7.6395   -0.6957    1.5516 H   0  0  0  0  0  0  0  0  0  0  0  0
    5.8858    0.9153    0.9980 H   0  0  0  0  0  0  0  0  0  0  0  0
   -0.8715   -1.1911   -0.0644 H   0  0  0  0  0  0  0  0  0  0  0  0
   -1.7125    1.5630   -0.8962 H   0  0  0  0  0  0  0  0  0  0  0  0
   -1.6041    0.1911   -2.8712 H   0  0  0  0  0  0  0  0  0  0  0  0
   -3.2866    0.4933   -2.4343 H   0  0  0  0  0  0  0  0  0  0  0  0
   -4.7562   -1.2358   -1.7255 H   0  0  0  0  0  0  0  0  0  0  0  0
   -5.2655   -3.5795   -1.7759 H   0  0  0  0  0  0  0  0  0  0  0  0
   -3.5211   -5.2466   -2.2262 H   0  0  0  0  0  0  0  0  0  0  0  0
   -1.2138   -4.4802   -2.6338 H   0  0  0  0  0  0  0  0  0  0  0  0
   -0.6394   -2.1039   -2.5943 H   0  0  0  0  0  0  0  0  0  0  0  0
   -5.4418    0.7151    1.5199 H   0  0  0  0  0  0  0  0  0  0  0  0
   -6.7281    4.3796    1.4745 H   0  0  0  0  0  0  0  0  0  0  0  0
   -5.1202    4.1529    0.5337 H   0  0  0  0  0  0  0  0  0  0  0  0
   -7.9072    3.5878   -0.5740 H   0  0  0  0  0  0  0  0  0  0  0  0
   -6.2982    3.1322   -1.4306 H   0  0  0  0  0  0  0  0  0  0  0  0
  1  2  1  0
  2  3  1  0
  2  4  1  0
  4  5  1  0
  5  6  1  0
  6  7  1  0
  7  8  2  0
  7  9  1  0
  9 10  1  0
 10 11  1  0
 11 12  2  0
 12 13  1  0
 13 14  2  0
 14 15  1  0
 15 16  2  0
  5 17  1  0
 17 18  2  0
 17 19  1  0
 19 20  1  0
 20 21  1  0
 21 22  1  0
 22 23  2  0
 23 24  1  0
 24 25  2  0
 25 26  1  0
 26 27  2  0
 20 28  1  0
 28 29  2  0
 28 30  1  0
 30 31  2  0
 30 32  1  0
 32 33  1  0
 33 34  1  0
 34 35  1  0
 33 36  1  0
 36 37  3  0
 16 11  1  0
 27 22  1  0
 35 33  1  0
  1 38  1  0
  1 39  1  0
  1 40  1  0
  2 41  1  0
  3 42  1  0
  3 43  1  0
  3 44  1  0
  4 45  1  0
  4 46  1  0
  5 47  1  6
  6 48  1  0
 10 49  1  0
 10 50  1  0
 12 51  1  0
 13 52  1  0
 14 53  1  0
 15 54  1  0
 16 55  1  0
 19 56  1  0
 20 57  1  6
 21 58  1  0
 21 59  1  0
 23 60  1  0
 24 61  1  0
 25 62  1  0
 26 63  1  0
 27 64  1  0
 32 65  1  0
 34 66  1  0
 34 67  1  0
 35 68  1  0
 35 69  1  0
M  END
$$$$
[H]O[C@@]([H])(C([H])([H])C(=O)N([H])[C@]([H])(C(=O)N([H])[C@]([H])(C(=O)N([H])[H])C([H])([H])C([H])(C([H])([H])[H])C([H])([H])[H])C([H])([H])[H])[C@@]([H])(N([H])C(=O)[C@@]([H])(N([H])C(=O)C([H])([H])C([H])(C([H])([H])[H])C([H])([H])[H])C([H])(c1c([H])c([H])c([H])c([H])c1[H])c1c([H])c([H])c([H])c([H])c1[H])C([H])([H])C([H])(C([H])([H])[H])C([H])([H])[H]
     RDKit          3D

103104  0  0  0  0  0  0  0  0999 V2000
    9.8749    3.2779   -1.4355 C   0  0  0  0  0  0  0  0  0  0  0  0
    9.4027    2.7503   -0.0649 C   0  0  0  0  0  0  0  0  0  0  0  0
    8.2213    3.5937    0.3014 C   0  0  0  0  0  0  0  0  0  0  0  0
    9.1303    1.3017   -0.2563 C   0  0  0  0  0  0  0  0  0  0  0  0
    8.6733    0.5211    0.9192 C   0  0  2  0  0  0  0  0  0  0  0  0
    7.4409    0.9492    1.5201 N   0  0  0  0  0  0  0  0  0  0  0  0
    6.2469    0.1621    1.4444 C   0  0  0  0  0  0  0  0  0  0  0  0
    6.3230   -0.9342    0.8159 O   0  0  0  0  0  0  0  0  0  0  0  0
    4.9705    0.5905    2.0671 C   0  0  2  0  0  0  0  0  0  0  0  0
    5.2137    0.7847    3.5577 C   0  0  0  0  0  0  0  0  0  0  0  0
    3.9776   -0.4090    1.8168 N   0  0  0  0  0  0  0  0  0  0  0  0
    2.7234   -0.1934    1.2367 C   0  0  0  0  0  0  0  0  0  0  0  0
    2.4363    0.9960    0.9025 O   0  0  0  0  0  0  0  0  0  0  0  0
    1.7151   -1.2425    0.9871 C   0  0  0  0  0  0  0  0  0  0  0  0
    0.4618   -0.6484    0.4418 C   0  0  2  0  0  0  0  0  0  0  0  0
   -0.0709    0.2800    1.3698 O   0  0  0  0  0  0  0  0  0  0  0  0
   -0.6130   -1.6393    0.0760 C   0  0  2  0  0  0  0  0  0  0  0  0
   -0.1237   -2.7159   -0.8348 C   0  0  0  0  0  0  0  0  0  0  0  0
   -1.1654   -3.7334   -1.2296 C   0  0  0  0  0  0  0  0  0  0  0  0
   -1.7619   -4.4899   -0.0920 C   0  0  0  0  0  0  0  0  0  0  0  0
   -0.4439   -4.7132   -2.1680 C   0  0  0  0  0  0  0  0  0  0  0  0
   -1.7283   -0.8978   -0.5120 N   0  0  0  0  0  0  0  0  0  0  0  0
   -2.9830   -0.8425    0.1437 C   0  0  0  0  0  0  0  0  0  0  0  0
   -3.1414   -1.4385    1.2483 O   0  0  0  0  0  0  0  0  0  0  0  0
   -4.1731   -0.1128   -0.3926 C   0  0  1  0  0  0  0  0  0  0  0  0
   -5.3447   -0.9485   -0.0658 N   0  0  0  0  0  0  0  0  0  0  0  0
   -6.1008   -1.6376   -1.0346 C   0  0  0  0  0  0  0  0  0  0  0  0
   -5.7085   -1.5004   -2.2450 O   0  0  0  0  0  0  0  0  0  0  0  0
   -7.2712   -2.4710   -0.7131 C   0  0  0  0  0  0  0  0  0  0  0  0
   -7.8586   -3.1365   -1.9355 C   0  0  0  0  0  0  0  0  0  0  0  0
   -8.3279   -2.1893   -2.9879 C   0  0  0  0  0  0  0  0  0  0  0  0
   -9.0393   -3.9693   -1.4766 C   0  0  0  0  0  0  0  0  0  0  0  0
   -4.3996    1.1952    0.3128 C   0  0  0  0  0  0  0  0  0  0  0  0
   -5.5631    1.9354   -0.1884 C   0  0  0  0  0  0  0  0  0  0  0  0
   -5.8622    2.0671   -1.5307 C   0  0  0  0  0  0  0  0  0  0  0  0
   -6.9691    2.7795   -1.9426 C   0  0  0  0  0  0  0  0  0  0  0  0
   -7.8211    3.3880   -1.0395 C   0  0  0  0  0  0  0  0  0  0  0  0
   -7.5232    3.2567    0.3003 C   0  0  0  0  0  0  0  0  0  0  0  0
   -6.4116    2.5405    0.6995 C   0  0  0  0  0  0  0  0  0  0  0  0
   -3.2234    2.0776    0.4057 C   0  0  0  0  0  0  0  0  0  0  0  0
   -2.8267    2.6494    1.6230 C   0  0  0  0  0  0  0  0  0  0  0  0
   -1.7585    3.4855    1.7526 C   0  0  0  0  0  0  0  0  0  0  0  0
   -1.0104    3.8044    0.6509 C   0  0  0  0  0  0  0  0  0  0  0  0
   -1.3566    3.2697   -0.5703 C   0  0  0  0  0  0  0  0  0  0  0  0
   -2.4573    2.4130   -0.6828 C   0  0  0  0  0  0  0  0  0  0  0  0
    9.7507    0.3492    1.9438 C   0  0  0  0  0  0  0  0  0  0  0  0
   11.0339   -0.0646    1.5373 N   0  0  0  0  0  0  0  0  0  0  0  0
    9.5350    0.5660    3.1587 O   0  0  0  0  0  0  0  0  0  0  0  0
    9.0558    3.1595   -2.1441 H   0  0  0  0  0  0  0  0  0  0  0  0
   10.7168    2.5926   -1.7445 H   0  0  0  0  0  0  0  0  0  0  0  0
   10.2065    4.3315   -1.3605 H   0  0  0  0  0  0  0  0  0  0  0  0
   10.1836    2.9073    0.7006 H   0  0  0  0  0  0  0  0  0  0  0  0
    7.2477    3.1636    0.0576 H   0  0  0  0  0  0  0  0  0  0  0  0
    8.2943    3.9169    1.3821 H   0  0  0  0  0  0  0  0  0  0  0  0
    8.2528    4.5809   -0.2511 H   0  0  0  0  0  0  0  0  0  0  0  0
    8.3610    1.1985   -1.0702 H   0  0  0  0  0  0  0  0  0  0  0  0
   10.0714    0.8305   -0.6419 H   0  0  0  0  0  0  0  0  0  0  0  0
    8.5034   -0.5365    0.5335 H   0  0  0  0  0  0  0  0  0  0  0  0
    7.3656    1.8364    2.0427 H   0  0  0  0  0  0  0  0  0  0  0  0
    4.6290    1.5453    1.6410 H   0  0  0  0  0  0  0  0  0  0  0  0
    4.5551    1.5935    3.9180 H   0  0  0  0  0  0  0  0  0  0  0  0
    5.0768   -0.1667    4.0827 H   0  0  0  0  0  0  0  0  0  0  0  0
    6.2556    1.1460    3.6665 H   0  0  0  0  0  0  0  0  0  0  0  0
    4.2263   -1.3992    2.1025 H   0  0  0  0  0  0  0  0  0  0  0  0
    1.4600   -1.6660    2.0035 H   0  0  0  0  0  0  0  0  0  0  0  0
    2.1039   -2.0901    0.4172 H   0  0  0  0  0  0  0  0  0  0  0  0
    0.7054   -0.0433   -0.4542 H   0  0  0  0  0  0  0  0  0  0  0  0
   -0.5417   -0.2671    2.0737 H   0  0  0  0  0  0  0  0  0  0  0  0
   -0.9838   -2.1001    1.0059 H   0  0  0  0  0  0  0  0  0  0  0  0
    0.6787   -3.3044   -0.3104 H   0  0  0  0  0  0  0  0  0  0  0  0
    0.3146   -2.3347   -1.7784 H   0  0  0  0  0  0  0  0  0  0  0  0
   -1.9244   -3.2337   -1.8713 H   0  0  0  0  0  0  0  0  0  0  0  0
   -1.0917   -4.3929    0.8007 H   0  0  0  0  0  0  0  0  0  0  0  0
   -2.8101   -4.2090    0.1450 H   0  0  0  0  0  0  0  0  0  0  0  0
   -1.7724   -5.5717   -0.3442 H   0  0  0  0  0  0  0  0  0  0  0  0
   -1.1594   -5.4173   -2.6361 H   0  0  0  0  0  0  0  0  0  0  0  0
    0.1756   -4.1586   -2.9025 H   0  0  0  0  0  0  0  0  0  0  0  0
    0.2631   -5.3157   -1.5611 H   0  0  0  0  0  0  0  0  0  0  0  0
   -1.5173   -0.4399   -1.4275 H   0  0  0  0  0  0  0  0  0  0  0  0
   -4.0113   -0.0334   -1.4817 H   0  0  0  0  0  0  0  0  0  0  0  0
   -5.6029   -1.0176    0.9259 H   0  0  0  0  0  0  0  0  0  0  0  0
   -6.9289   -3.2982   -0.0450 H   0  0  0  0  0  0  0  0  0  0  0  0
   -8.0705   -1.9409   -0.1996 H   0  0  0  0  0  0  0  0  0  0  0  0
   -7.0765   -3.7988   -2.3991 H   0  0  0  0  0  0  0  0  0  0  0  0
   -7.5836   -2.0260   -3.8092 H   0  0  0  0  0  0  0  0  0  0  0  0
   -9.2082   -2.6711   -3.5076 H   0  0  0  0  0  0  0  0  0  0  0  0
   -8.7094   -1.2314   -2.5866 H   0  0  0  0  0  0  0  0  0  0  0  0
   -9.3997   -3.6202   -0.4863 H   0  0  0  0  0  0  0  0  0  0  0  0
   -8.7708   -5.0384   -1.3489 H   0  0  0  0  0  0  0  0  0  0  0  0
   -9.9141   -3.8391   -2.1726 H   0  0  0  0  0  0  0  0  0  0  0  0
   -4.6368    0.9031    1.3852 H   0  0  0  0  0  0  0  0  0  0  0  0
   -5.1876    1.5864   -2.2237 H   0  0  0  0  0  0  0  0  0  0  0  0
   -7.1984    2.8795   -3.0014 H   0  0  0  0  0  0  0  0  0  0  0  0
   -8.6931    3.9482   -1.3954 H   0  0  0  0  0  0  0  0  0  0  0  0
   -8.2001    3.7400    1.0164 H   0  0  0  0  0  0  0  0  0  0  0  0
   -6.2410    2.4810    1.7681 H   0  0  0  0  0  0  0  0  0  0  0  0
   -3.4397    2.3804    2.4908 H   0  0  0  0  0  0  0  0  0  0  0  0
   -1.5285    3.8800    2.7411 H   0  0  0  0  0  0  0  0  0  0  0  0
   -0.1649    4.4720    0.7791 H   0  0  0  0  0  0  0  0  0  0  0  0
   -0.7597    3.5299   -1.4226 H   0  0  0  0  0  0  0  0  0  0  0  0
   -2.6959    2.0129   -1.6678 H   0  0  0  0  0  0  0  0  0  0  0  0
   11.9094    0.4744    1.7022 H   0  0  0  0  0  0  0  0  0  0  0  0
   11.1172   -0.9843    1.0296 H   0  0  0  0  0  0  0  0  0  0  0  0
  1  2  1  0
  2  3  1  0
  2  4  1  0
  4  5  1  0
  5  6  1  0
  6  7  1  0
  7  8  2  0
  7  9  1  0
  9 10  1  0
  9 11  1  0
 11 12  1  0
 12 13  2  0
 12 14  1  0
 14 15  1  0
 15 16  1  0
 15 17  1  0
 17 18  1  0
 18 19  1  0
 19 20  1  0
 19 21  1  0
 17 22  1  0
 22 23  1  0
 23 24  2  0
 23 25  1  0
 25 26  1  0
 26 27  1  0
 27 28  2  0
 27 29  1  0
 29 30  1  0
 30 31  1  0
 30 32  1  0
 25 33  1  0
 33 34  1  0
 34 35  2  0
 35 36  1  0
 36 37  2  0
 37 38  1  0
 38 39  2  0
 33 40  1  0
 40 41  2  0
 41 42  1  0
 42 43  2  0
 43 44  1  0
 44 45  2  0
  5 46  1  0
 46 47  1  0
 46 48  2  0
 39 34  1  0
 45 40  1  0
  1 49  1  0
  1 50  1  0
  1 51  1  0
  2 52  1  0
  3 53  1  0
  3 54  1  0
  3 55  1  0
  4 56  1  0
  4 57  1  0
  5 58  1  6
  6 59  1  0
  9 60  1  6
 10 61  1  0
 10 62  1  0
 10 63  1  0
 11 64  1  0
 14 65  1  0
 14 66  1  0
 15 67  1  6
 16 68  1  0
 17 69  1  1
 18 70  1  0
 18 71  1  0
 19 72  1  0
 20 73  1  0
 20 74  1  0
 20 75  1  0
 21 76  1  0
 21 77  1  0
 21 78  1  0
 22 79  1  0
 25 80  1  6
 26 81  1  0
 29 82  1  0
 29 83  1  0
 30 84  1  0
 31 85  1  0
 31 86  1  0
 31 87  1  0
 32 88  1  0
 32 89  1  0
 32 90  1  0
 33 91  1  0
 35 92  1  0
 36 93  1  0
 37 94  1  0
 38 95  1  0
 39 96  1  0
 41 97  1  0
 42 98  1  0
 43 99  1  0
 44100  1  0
 45101  1  0
 47102  1  0
 47103  1  0
M  END
$$$$
[H]c1c([H])c(-c2nc(-c3c([H])c([H])c(C([H])([H])[H])c([H])c3[H])nn2-c2c([H])c([H])c(S(=O)(=O)N([H])[H])c([H])c2[H])c([H])c([H])c1OC([H])([H])[H]
     RDKit          3D

 50 53  0  0  0  0  0  0  0  0999 V2000
   -3.1180   -1.8339   -0.4231 C   0  0  0  0  0  0  0  0  0  0  0  0
   -1.8219   -1.1943   -0.2450 C   0  0  0  0  0  0  0  0  0  0  0  0
   -0.6167   -1.7491   -0.1433 N   0  0  0  0  0  0  0  0  0  0  0  0
    0.3066   -0.7695    0.0128 N   0  0  0  0  0  0  0  0  0  0  0  0
    1.6729   -1.0659    0.1466 C   0  0  0  0  0  0  0  0  0  0  0  0
    2.4845   -1.1728   -0.9776 C   0  0  0  0  0  0  0  0  0  0  0  0
    3.8105   -1.5064   -0.8498 C   0  0  0  0  0  0  0  0  0  0  0  0
    4.4133   -1.7516    0.3648 C   0  0  0  0  0  0  0  0  0  0  0  0
    6.1035   -2.1755    0.5108 S   0  0  0  0  0  0  0  0  0  0  0  0
    6.2776   -2.9906    1.7790 O   0  0  0  0  0  0  0  0  0  0  0  0
    7.0338   -0.7345    0.6856 N   0  0  0  0  0  0  0  0  0  0  0  0
    6.5686   -2.9634   -0.6846 O   0  0  0  0  0  0  0  0  0  0  0  0
    3.5954   -1.6416    1.4693 C   0  0  0  0  0  0  0  0  0  0  0  0
    2.2662   -1.3101    1.3776 C   0  0  0  0  0  0  0  0  0  0  0  0
   -0.2906    0.4060    0.0126 C   0  0  0  0  0  0  0  0  0  0  0  0
    0.1646    1.7726    0.1389 C   0  0  0  0  0  0  0  0  0  0  0  0
   -0.7799    2.7972    0.0923 C   0  0  0  0  0  0  0  0  0  0  0  0
   -0.4555    4.1239    0.2020 C   0  0  0  0  0  0  0  0  0  0  0  0
    0.8498    4.5212    0.3677 C   0  0  0  0  0  0  0  0  0  0  0  0
    1.1525    5.8764    0.4766 O   0  0  0  0  0  0  0  0  0  0  0  0
    0.2010    6.8917    0.4287 C   0  0  0  0  0  0  0  0  0  0  0  0
    1.7965    3.5443    0.4172 C   0  0  0  0  0  0  0  0  0  0  0  0
    1.4516    2.1882    0.3036 C   0  0  0  0  0  0  0  0  0  0  0  0
   -1.6382    0.1215   -0.1515 N   0  0  0  0  0  0  0  0  0  0  0  0
   -4.2762   -1.0951   -0.5095 C   0  0  0  0  0  0  0  0  0  0  0  0
   -5.5113   -1.6751   -0.6776 C   0  0  0  0  0  0  0  0  0  0  0  0
   -5.6352   -3.0572   -0.7679 C   0  0  0  0  0  0  0  0  0  0  0  0
   -6.9787   -3.6644   -0.9494 C   0  0  0  0  0  0  0  0  0  0  0  0
   -4.4745   -3.7948   -0.6811 C   0  0  0  0  0  0  0  0  0  0  0  0
   -3.2448   -3.2040   -0.5131 C   0  0  0  0  0  0  0  0  0  0  0  0
    2.0508   -0.9864   -1.9741 H   0  0  0  0  0  0  0  0  0  0  0  0
    4.4476   -1.5909   -1.7245 H   0  0  0  0  0  0  0  0  0  0  0  0
    7.6201   -0.5427   -0.1422 H   0  0  0  0  0  0  0  0  0  0  0  0
    6.4201    0.0673    0.8739 H   0  0  0  0  0  0  0  0  0  0  0  0
    4.0531   -1.8313    2.4357 H   0  0  0  0  0  0  0  0  0  0  0  0
    1.6616   -1.2368    2.2942 H   0  0  0  0  0  0  0  0  0  0  0  0
   -1.8353    2.5607   -0.0370 H   0  0  0  0  0  0  0  0  0  0  0  0
   -1.2461    4.8583    0.1561 H   0  0  0  0  0  0  0  0  0  0  0  0
    0.7262    7.8557    0.6182 H   0  0  0  0  0  0  0  0  0  0  0  0
   -0.3196    6.9774   -0.5444 H   0  0  0  0  0  0  0  0  0  0  0  0
   -0.5767    6.8210    1.2287 H   0  0  0  0  0  0  0  0  0  0  0  0
    2.8283    3.8067    0.5453 H   0  0  0  0  0  0  0  0  0  0  0  0
    2.2467    1.4918    0.3521 H   0  0  0  0  0  0  0  0  0  0  0  0
   -4.1612   -0.0080   -0.4366 H   0  0  0  0  0  0  0  0  0  0  0  0
   -6.3738   -1.0407   -0.7373 H   0  0  0  0  0  0  0  0  0  0  0  0
   -7.7152   -2.9481   -0.5058 H   0  0  0  0  0  0  0  0  0  0  0  0
   -7.2381   -3.7987   -2.0201 H   0  0  0  0  0  0  0  0  0  0  0  0
   -7.0233   -4.6491   -0.3996 H   0  0  0  0  0  0  0  0  0  0  0  0
   -4.5268   -4.8825   -0.7472 H   0  0  0  0  0  0  0  0  0  0  0  0
   -2.3458   -3.8167   -0.4482 H   0  0  0  0  0  0  0  0  0  0  0  0
  1  2  1  0
  2  3  2  0
  3  4  1  0
  4  5  1  0
  5  6  2  0
  6  7  1  0
  7  8  2  0
  8  9  1  0
  9 10  2  0
  9 11  1  0
  9 12  2  0
  8 13  1  0
 13 14  2  0
  4 15  1  0
 15 16  1  0
 16 17  2  0
 17 18  1  0
 18 19  2  0
 19 20  1  0
 20 21  1  0
 19 22  1  0
 22 23  2  0
 15 24  2  0
  1 25  2  0
 25 26  1  0
 26 27  2  0
 27 28  1  0
 27 29  1  0
 29 30  2  0
 30  1  1  0
 24  2  1  0
 14  5  1  0
 23 16  1  0
  6 31  1  0
  7 32  1  0
 11 33  1  0
 11 34  1  0
 13 35  1  0
 14 36  1  0
 17 37  1  0
 18 38  1  0
 21 39  1  0
 21 40  1  0
 21 41  1  0
 22 42  1  0
 23 43  1  0
 25 44  1  0
 26 45  1  0
 28 46  1  0
 28 47  1  0
 28 48  1  0
 29 49  1  0
 30 50  1  0
M  END
$$$$
[H]OC(=O)[C@@]([H])(N([H])C(=O)[C@@]([H])(N([H])C(=O)[C@]([H])(N([H])C(=O)C([H])([H])c1c([H])c([H])c([H])c([H])c1[H])C([H])([H])C([H])(C([H])([H])[H])C([H])([H])[H])C([H])([H])c1c([H])c([H])c([H])c([H])c1[H])C([H])([H])C([H])(C([H])([H])[H])C([H])([H])[H]
     RDKit          3D

 76 77  0  0  0  0  0  0  0  0999 V2000
   -6.7338    2.6981   -0.3099 C   0  0  0  0  0  0  0  0  0  0  0  0
   -8.0725    2.5352   -0.5735 C   0  0  0  0  0  0  0  0  0  0  0  0
   -8.5420    2.6900   -1.8679 C   0  0  0  0  0  0  0  0  0  0  0  0
   -7.6519    3.0009   -2.8452 C   0  0  0  0  0  0  0  0  0  0  0  0
   -6.2991    3.1674   -2.5877 C   0  0  0  0  0  0  0  0  0  0  0  0
   -5.8064    3.0192   -1.3101 C   0  0  0  0  0  0  0  0  0  0  0  0
   -4.3965    3.1697   -0.9406 C   0  0  0  0  0  0  0  0  0  0  0  0
   -3.5550    1.9862   -1.2013 C   0  0  0  0  0  0  0  0  0  0  0  0
   -3.2964    1.6746   -2.4027 O   0  0  0  0  0  0  0  0  0  0  0  0
   -3.0109    1.1641   -0.2033 N   0  0  0  0  0  0  0  0  0  0  0  0
   -2.1816    0.0117   -0.4625 C   0  0  1  0  0  0  0  0  0  0  0  0
   -0.9187    0.0360    0.2843 C   0  0  0  0  0  0  0  0  0  0  0  0
    0.1133   -0.9452    0.1563 N   0  0  0  0  0  0  0  0  0  0  0  0
    1.3203   -0.8360    0.9417 C   0  0  1  0  0  0  0  0  0  0  0  0
    1.6621   -2.0808    1.6696 C   0  0  0  0  0  0  0  0  0  0  0  0
    1.8593   -3.2736    0.7843 C   0  0  0  0  0  0  0  0  0  0  0  0
    3.0596   -3.6258    0.2329 C   0  0  0  0  0  0  0  0  0  0  0  0
    3.2029   -4.7544   -0.5857 C   0  0  0  0  0  0  0  0  0  0  0  0
    2.1142   -5.5544   -0.8621 C   0  0  0  0  0  0  0  0  0  0  0  0
    0.9009   -5.2108   -0.3140 C   0  0  0  0  0  0  0  0  0  0  0  0
    0.7692   -4.0890    0.4977 C   0  0  0  0  0  0  0  0  0  0  0  0
    2.4405   -0.1819    0.2151 C   0  0  0  0  0  0  0  0  0  0  0  0
    3.6605    0.0528    0.8949 N   0  0  0  0  0  0  0  0  0  0  0  0
    4.7863    0.7323    0.1999 C   0  0  2  0  0  0  0  0  0  0  0  0
    6.0073   -0.0501    0.2047 C   0  0  0  0  0  0  0  0  0  0  0  0
    5.9875   -1.1250    0.9110 O   0  0  0  0  0  0  0  0  0  0  0  0
    7.1771    0.2256   -0.4602 O   0  0  0  0  0  0  0  0  0  0  0  0
    4.8213    2.1057    0.7615 C   0  0  0  0  0  0  0  0  0  0  0  0
    5.8474    3.0630    0.2963 C   0  0  0  0  0  0  0  0  0  0  0  0
    5.8280    3.3148   -1.1974 C   0  0  0  0  0  0  0  0  0  0  0  0
    7.2091    2.9574    0.8871 C   0  0  0  0  0  0  0  0  0  0  0  0
    2.2331    0.1364   -0.9760 O   0  0  0  0  0  0  0  0  0  0  0  0
   -0.7306    1.0046    1.1035 O   0  0  0  0  0  0  0  0  0  0  0  0
   -2.8817   -1.2807   -0.2992 C   0  0  0  0  0  0  0  0  0  0  0  0
   -3.4911   -1.6209    0.9955 C   0  0  0  0  0  0  0  0  0  0  0  0
   -2.5956   -1.7063    2.1888 C   0  0  0  0  0  0  0  0  0  0  0  0
   -4.0537   -3.0507    0.8237 C   0  0  0  0  0  0  0  0  0  0  0  0
   -6.3780    2.5748    0.7062 H   0  0  0  0  0  0  0  0  0  0  0  0
   -8.7905    2.2891    0.1961 H   0  0  0  0  0  0  0  0  0  0  0  0
   -9.6039    2.5569   -2.0562 H   0  0  0  0  0  0  0  0  0  0  0  0
   -8.0319    3.1186   -3.8490 H   0  0  0  0  0  0  0  0  0  0  0  0
   -5.6075    3.4133   -3.3737 H   0  0  0  0  0  0  0  0  0  0  0  0
   -3.9463    4.0216   -1.5275 H   0  0  0  0  0  0  0  0  0  0  0  0
   -4.3441    3.4124    0.1548 H   0  0  0  0  0  0  0  0  0  0  0  0
   -3.2117    1.3952    0.7978 H   0  0  0  0  0  0  0  0  0  0  0  0
   -1.9055    0.1181   -1.5684 H   0  0  0  0  0  0  0  0  0  0  0  0
   -0.0630   -1.7254   -0.5269 H   0  0  0  0  0  0  0  0  0  0  0  0
    1.0619   -0.0567    1.7433 H   0  0  0  0  0  0  0  0  0  0  0  0
    0.8054   -2.3225    2.3420 H   0  0  0  0  0  0  0  0  0  0  0  0
    2.5694   -1.9059    2.2981 H   0  0  0  0  0  0  0  0  0  0  0  0
    3.9177   -3.0256    0.4314 H   0  0  0  0  0  0  0  0  0  0  0  0
    4.1654   -4.9993   -1.0014 H   0  0  0  0  0  0  0  0  0  0  0  0
    2.2304   -6.4295   -1.4986 H   0  0  0  0  0  0  0  0  0  0  0  0
    0.0138   -5.8177   -0.5090 H   0  0  0  0  0  0  0  0  0  0  0  0
   -0.1852   -3.8182    0.9306 H   0  0  0  0  0  0  0  0  0  0  0  0
    3.7489   -0.2606    1.8799 H   0  0  0  0  0  0  0  0  0  0  0  0
    4.4525    0.8229   -0.8661 H   0  0  0  0  0  0  0  0  0  0  0  0
    7.9563   -0.3858   -0.4133 H   0  0  0  0  0  0  0  0  0  0  0  0
    4.8198    2.1121    1.8792 H   0  0  0  0  0  0  0  0  0  0  0  0
    3.8135    2.5694    0.4920 H   0  0  0  0  0  0  0  0  0  0  0  0
    5.4607    4.0922    0.7092 H   0  0  0  0  0  0  0  0  0  0  0  0
    5.0836    2.6072   -1.6454 H   0  0  0  0  0  0  0  0  0  0  0  0
    6.8309    3.2055   -1.6705 H   0  0  0  0  0  0  0  0  0  0  0  0
    5.4664    4.3204   -1.4671 H   0  0  0  0  0  0  0  0  0  0  0  0
    8.0339    2.8927    0.1178 H   0  0  0  0  0  0  0  0  0  0  0  0
    7.3138    2.1442    1.6346 H   0  0  0  0  0  0  0  0  0  0  0  0
    7.4854    3.9041    1.4536 H   0  0  0  0  0  0  0  0  0  0  0  0
   -2.2202   -2.1558   -0.5897 H   0  0  0  0  0  0  0  0  0  0  0  0
   -3.6999   -1.3439   -1.0826 H   0  0  0  0  0  0  0  0  0  0  0  0
   -4.4142   -1.0197    1.2228 H   0  0  0  0  0  0  0  0  0  0  0  0
   -2.3179   -0.7663    2.6606 H   0  0  0  0  0  0  0  0  0  0  0  0
   -1.7705   -2.4106    1.9806 H   0  0  0  0  0  0  0  0  0  0  0  0
   -3.2199   -2.2364    2.9889 H   0  0  0  0  0  0  0  0  0  0  0  0
   -4.4866   -3.1908   -0.1691 H   0  0  0  0  0  0  0  0  0  0  0  0
   -3.1399   -3.7106    0.8709 H   0  0  0  0  0  0  0  0  0  0  0  0
   -4.6756   -3.3494    1.6747 H   0  0  0  0  0  0  0  0  0  0  0  0
  1  2  2  0
  2  3  1  0
  3  4  2  0
  4  5  1  0
  5  6  2  0
  6  7  1  0
  7  8  1  0
  8  9  2  0
  8 10  1  0
 10 11  1  0
 11 12  1  0
 12 13  1  0
 13 14  1  0
 14 15  1  0
 15 16  1  0
 16 17  2  0
 17 18  1  0
 18 19  2  0
 19 20  1  0
 20 21  2  0
 14 22  1  0
 22 23  1  0
 23 24  1  0
 24 25  1  0
 25 26  2  0
 25 27  1  0
 24 28  1  0
 28 29  1  0
 29 30  1  0
 29 31  1  0
 22 32  2  0
 12 33  2  0
 11 34  1  0
 34 35  1  0
 35 36  1  0
 35 37  1  0
  6  1  1  0
 21 16  1  0
  1 38  1  0
  2 39  1  0
  3 40  1  0
  4 41  1  0
  5 42  1  0
  7 43  1  0
  7 44  1  0
 10 45  1  0
 11 46  1  6
 13 47  1  0
 14 48  1  1
 15 49  1  0
 15 50  1  0
 17 51  1  0
 18 52  1  0
 19 53  1  0
 20 54  1  0
 21 55  1  0
 23 56  1  0
 24 57  1  6
 27 58  1  0
 28 59  1  0
 28 60  1  0
 29 61  1  0
 30 62  1  0
 30 63  1  0
 30 64  1  0
 31 65  1  0
 31 66  1  0
 31 67  1  0
 34 68  1  0
 34 69  1  0
 35 70  1  0
 36 71  1  0
 36 72  1  0
 36 73  1  0
 37 74  1  0
 37 75  1  0
 37 76  1  0
M  END
$$$$
[H]C([H])=C([H])c1c([H])c([H])n2c(-c3c([H])c([H])c(Cl)c([H])c3[H])c(C(=O)N([H])C([H])([H])C([H])([H])N(C([H])([H])[H])C([H])([H])[H])c([H])c2c1[H]
     RDKit          3D

 48 50  0  0  0  0  0  0  0  0999 V2000
    6.5598    0.2982   -1.0538 C   0  0  0  0  0  0  0  0  0  0  0  0
    5.4850    0.6132   -0.1968 N   0  0  0  0  0  0  0  0  0  0  0  0
    5.7788    1.0269    1.1124 C   0  0  0  0  0  0  0  0  0  0  0  0
    4.2185    0.0743   -0.4963 C   0  0  0  0  0  0  0  0  0  0  0  0
    3.1853    0.5040    0.5051 C   0  0  0  0  0  0  0  0  0  0  0  0
    1.8592   -0.0344    0.2091 N   0  0  0  0  0  0  0  0  0  0  0  0
    0.7442    0.2420    1.0249 C   0  0  0  0  0  0  0  0  0  0  0  0
    0.8765    0.9548    2.0439 O   0  0  0  0  0  0  0  0  0  0  0  0
   -0.5657   -0.2924    0.7128 C   0  0  0  0  0  0  0  0  0  0  0  0
   -0.9555   -1.6131    0.9707 C   0  0  0  0  0  0  0  0  0  0  0  0
   -2.2327   -1.8278    0.5207 C   0  0  0  0  0  0  0  0  0  0  0  0
   -3.0068   -2.9946    0.5550 C   0  0  0  0  0  0  0  0  0  0  0  0
   -4.2694   -3.0076    0.0206 C   0  0  0  0  0  0  0  0  0  0  0  0
   -5.1340   -4.1752    0.0669 C   0  0  0  0  0  0  0  0  0  0  0  0
   -4.9895   -5.2121    0.8490 C   0  0  0  0  0  0  0  0  0  0  0  0
   -4.7081   -1.8269   -0.5388 C   0  0  0  0  0  0  0  0  0  0  0  0
   -3.8961   -0.7035   -0.5415 C   0  0  0  0  0  0  0  0  0  0  0  0
   -2.6583   -0.6717   -0.0172 N   0  0  0  0  0  0  0  0  0  0  0  0
   -1.6689    0.2746    0.0914 C   0  0  0  0  0  0  0  0  0  0  0  0
   -1.7744    1.6755   -0.3790 C   0  0  0  0  0  0  0  0  0  0  0  0
   -0.6999    2.4120   -0.7763 C   0  0  0  0  0  0  0  0  0  0  0  0
   -0.7926    3.7695   -1.0509 C   0  0  0  0  0  0  0  0  0  0  0  0
   -1.9720    4.4508   -0.9412 C   0  0  0  0  0  0  0  0  0  0  0  0
   -2.0740    6.1745   -1.2821 Cl  0  0  0  0  0  0  0  0  0  0  0  0
   -3.0636    3.7247   -0.5445 C   0  0  0  0  0  0  0  0  0  0  0  0
   -2.9748    2.3578   -0.2646 C   0  0  0  0  0  0  0  0  0  0  0  0
    6.7882    1.2178   -1.6703 H   0  0  0  0  0  0  0  0  0  0  0  0
    7.5129    0.0786   -0.5299 H   0  0  0  0  0  0  0  0  0  0  0  0
    6.3367   -0.5266   -1.7352 H   0  0  0  0  0  0  0  0  0  0  0  0
    5.6029    0.3010    1.9302 H   0  0  0  0  0  0  0  0  0  0  0  0
    5.2285    1.9760    1.3533 H   0  0  0  0  0  0  0  0  0  0  0  0
    6.8699    1.2922    1.1666 H   0  0  0  0  0  0  0  0  0  0  0  0
    4.2825   -1.0487   -0.5469 H   0  0  0  0  0  0  0  0  0  0  0  0
    3.9083    0.4108   -1.5001 H   0  0  0  0  0  0  0  0  0  0  0  0
    3.4974    0.1454    1.4964 H   0  0  0  0  0  0  0  0  0  0  0  0
    3.1120    1.6121    0.4832 H   0  0  0  0  0  0  0  0  0  0  0  0
    1.7478   -0.6396   -0.6384 H   0  0  0  0  0  0  0  0  0  0  0  0
   -0.3378   -2.3344    1.4465 H   0  0  0  0  0  0  0  0  0  0  0  0
   -2.6112   -3.9076    1.0108 H   0  0  0  0  0  0  0  0  0  0  0  0
   -5.9848   -4.1689   -0.6431 H   0  0  0  0  0  0  0  0  0  0  0  0
   -4.1213   -5.2001    1.5454 H   0  0  0  0  0  0  0  0  0  0  0  0
   -5.6287   -6.0592    0.8720 H   0  0  0  0  0  0  0  0  0  0  0  0
   -5.7073   -1.8003   -0.9765 H   0  0  0  0  0  0  0  0  0  0  0  0
   -4.2903    0.1725   -1.0412 H   0  0  0  0  0  0  0  0  0  0  0  0
    0.2632    1.9211   -0.9110 H   0  0  0  0  0  0  0  0  0  0  0  0
    0.1151    4.2823   -1.3551 H   0  0  0  0  0  0  0  0  0  0  0  0
   -4.0146    4.2366   -0.4483 H   0  0  0  0  0  0  0  0  0  0  0  0
   -3.8404    1.8453    0.0923 H   0  0  0  0  0  0  0  0  0  0  0  0
  1  2  1  0
  2  3  1  0
  2  4  1  0
  4  5  1  0
  5  6  1  0
  6  7  1  0
  7  8  2  0
  7  9  1  0
  9 10  1  0
 10 11  2  0
 11 12  1  0
 12 13  2  0
 13 14  1  0
 14 15  2  3
 13 16  1  0
 16 17  2  0
 17 18  1  0
 18 19  1  0
 19 20  1  0
 20 21  2  0
 21 22  1  0
 22 23  2  0
 23 24  1  0
 23 25  1  0
 25 26  2  0
 19  9  2  0
 26 20  1  0
 18 11  1  0
  1 27  1  0
  1 28  1  0
  1 29  1  0
  3 30  1  0
  3 31  1  0
  3 32  1  0
  4 33  1  0
  4 34  1  0
  5 35  1  0
  5 36  1  0
  6 37  1  0
 10 38  1  0
 12 39  1  0
 14 40  1  0
 15 41  1  0
 15 42  1  0
 16 43  1  0
 17 44  1  0
 21 45  1  0
 22 46  1  0
 25 47  1  0
 26 48  1  0
M  END
$$$$
[H]OC(=O)C([H])([H])C([H])([H])C([H])([H])[C@]([H])(N([H])[H])[C@]1([H])C(=O)N([H])[C@@]([H])(C([H])([H])c2c([H])c([H])c([H])c([H])c2[H])C(=O)N([H])[C@@]([H])(C([H])([H])c2c([H])nc([H])n2[H])C(=O)N([H])[C@@]([H])(C([H])([H])c2c([H])c([H])c(O[H])c([H])c2[H])C(=O)N1[H]
     RDKit          3D

 82 85  0  0  0  0  0  0  0  0999 V2000
    1.4597   -3.1470   -0.2943 N   0  0  0  0  0  0  0  0  0  0  0  0
    2.0714   -1.8739   -0.0891 C   0  0  1  0  0  0  0  0  0  0  0  0
    3.0002   -1.6568   -1.2817 C   0  0  0  0  0  0  0  0  0  0  0  0
    3.9906   -2.8282   -1.2228 C   0  0  0  0  0  0  0  0  0  0  0  0
    4.9654   -2.6784   -2.3706 C   0  0  0  0  0  0  0  0  0  0  0  0
    5.9499   -3.7967   -2.3753 C   0  0  0  0  0  0  0  0  0  0  0  0
    6.9565   -3.8127   -3.3289 O   0  0  0  0  0  0  0  0  0  0  0  0
    5.9315   -4.7467   -1.5577 O   0  0  0  0  0  0  0  0  0  0  0  0
    1.0479   -0.7232    0.0025 C   0  0  1  0  0  0  0  0  0  0  0  0
    0.1533   -0.9628    1.1122 N   0  0  0  0  0  0  0  0  0  0  0  0
   -1.2272   -0.7473    1.1956 C   0  0  0  0  0  0  0  0  0  0  0  0
   -1.6233    0.0494    2.1282 O   0  0  0  0  0  0  0  0  0  0  0  0
   -2.3137   -1.3017    0.3674 C   0  0  2  0  0  0  0  0  0  0  0  0
   -2.4400   -2.8168    0.5321 C   0  0  0  0  0  0  0  0  0  0  0  0
   -2.7229   -3.2323    1.9254 C   0  0  0  0  0  0  0  0  0  0  0  0
   -4.0170   -3.3380    2.3972 C   0  0  0  0  0  0  0  0  0  0  0  0
   -4.3031   -3.7292    3.6899 C   0  0  0  0  0  0  0  0  0  0  0  0
   -3.2810   -4.0303    4.5594 C   0  0  0  0  0  0  0  0  0  0  0  0
   -3.6212   -4.4184    5.8465 O   0  0  0  0  0  0  0  0  0  0  0  0
   -1.9816   -3.9372    4.1297 C   0  0  0  0  0  0  0  0  0  0  0  0
   -1.7130   -3.5410    2.8232 C   0  0  0  0  0  0  0  0  0  0  0  0
   -2.1988   -1.0535   -1.0417 N   0  0  0  0  0  0  0  0  0  0  0  0
   -2.5216    0.1042   -1.7863 C   0  0  0  0  0  0  0  0  0  0  0  0
   -3.3209    0.0107   -2.7802 O   0  0  0  0  0  0  0  0  0  0  0  0
   -2.0036    1.4566   -1.5191 C   0  0  2  0  0  0  0  0  0  0  0  0
   -2.8977    2.6102   -1.7052 C   0  0  0  0  0  0  0  0  0  0  0  0
   -3.4711    2.8709   -3.0143 C   0  0  0  0  0  0  0  0  0  0  0  0
   -2.8770    3.5985   -4.0509 C   0  0  0  0  0  0  0  0  0  0  0  0
   -3.7234    3.6497   -5.0896 N   0  0  0  0  0  0  0  0  0  0  0  0
   -4.8359    2.9860   -4.7631 C   0  0  0  0  0  0  0  0  0  0  0  0
   -4.6682    2.5211   -3.5061 N   0  0  0  0  0  0  0  0  0  0  0  0
   -0.7937    1.7306   -2.2924 N   0  0  0  0  0  0  0  0  0  0  0  0
    0.2751    2.5306   -1.8247 C   0  0  0  0  0  0  0  0  0  0  0  0
    0.9035    3.2913   -2.6419 O   0  0  0  0  0  0  0  0  0  0  0  0
    0.7524    2.5739   -0.4180 C   0  0  2  0  0  0  0  0  0  0  0  0
    1.1029    4.0424   -0.1057 C   0  0  0  0  0  0  0  0  0  0  0  0
    1.5862    4.2047    1.2677 C   0  0  0  0  0  0  0  0  0  0  0  0
    0.7217    4.4701    2.3372 C   0  0  0  0  0  0  0  0  0  0  0  0
    1.1489    4.6295    3.6222 C   0  0  0  0  0  0  0  0  0  0  0  0
    2.4992    4.5268    3.8986 C   0  0  0  0  0  0  0  0  0  0  0  0
    3.3682    4.2688    2.8797 C   0  0  0  0  0  0  0  0  0  0  0  0
    2.9235    4.1093    1.5763 C   0  0  0  0  0  0  0  0  0  0  0  0
    1.8639    1.7203   -0.1683 N   0  0  0  0  0  0  0  0  0  0  0  0
    1.8912    0.4519    0.4260 C   0  0  0  0  0  0  0  0  0  0  0  0
    2.6755    0.2008    1.4164 O   0  0  0  0  0  0  0  0  0  0  0  0
    0.6927   -3.0528   -0.9958 H   0  0  0  0  0  0  0  0  0  0  0  0
    1.1003   -3.5206    0.6120 H   0  0  0  0  0  0  0  0  0  0  0  0
    2.7075   -1.8612    0.8005 H   0  0  0  0  0  0  0  0  0  0  0  0
    2.4561   -1.7441   -2.2233 H   0  0  0  0  0  0  0  0  0  0  0  0
    3.6025   -0.7537   -1.1969 H   0  0  0  0  0  0  0  0  0  0  0  0
    3.4679   -3.7846   -1.2678 H   0  0  0  0  0  0  0  0  0  0  0  0
    4.5110   -2.6999   -0.2304 H   0  0  0  0  0  0  0  0  0  0  0  0
    5.5231   -1.7401   -2.2739 H   0  0  0  0  0  0  0  0  0  0  0  0
    4.3453   -2.7306   -3.3097 H   0  0  0  0  0  0  0  0  0  0  0  0
    7.1323   -4.5583   -3.9705 H   0  0  0  0  0  0  0  0  0  0  0  0
    0.5595   -0.5882   -0.9548 H   0  0  0  0  0  0  0  0  0  0  0  0
    0.6512   -1.3555    1.9729 H   0  0  0  0  0  0  0  0  0  0  0  0
   -3.3189   -0.9504    0.7674 H   0  0  0  0  0  0  0  0  0  0  0  0
   -3.2658   -3.1897   -0.1101 H   0  0  0  0  0  0  0  0  0  0  0  0
   -1.5218   -3.2927    0.1729 H   0  0  0  0  0  0  0  0  0  0  0  0
   -4.8808   -3.1160    1.7617 H   0  0  0  0  0  0  0  0  0  0  0  0
   -5.3275   -3.8034    4.0342 H   0  0  0  0  0  0  0  0  0  0  0  0
   -3.7696   -5.4134    6.0635 H   0  0  0  0  0  0  0  0  0  0  0  0
   -1.2087   -4.1854    4.8443 H   0  0  0  0  0  0  0  0  0  0  0  0
   -0.6833   -3.4910    2.5424 H   0  0  0  0  0  0  0  0  0  0  0  0
   -1.8153   -1.8618   -1.6261 H   0  0  0  0  0  0  0  0  0  0  0  0
   -1.7655    1.4412   -0.4088 H   0  0  0  0  0  0  0  0  0  0  0  0
   -3.7141    2.6463   -0.9193 H   0  0  0  0  0  0  0  0  0  0  0  0
   -2.2924    3.5435   -1.4458 H   0  0  0  0  0  0  0  0  0  0  0  0
   -1.9146    4.0379   -4.0307 H   0  0  0  0  0  0  0  0  0  0  0  0
   -5.7000    2.8500   -5.3877 H   0  0  0  0  0  0  0  0  0  0  0  0
   -5.4050    1.9697   -3.0214 H   0  0  0  0  0  0  0  0  0  0  0  0
   -0.7076    1.3124   -3.2429 H   0  0  0  0  0  0  0  0  0  0  0  0
   -0.1238    2.3867    0.2235 H   0  0  0  0  0  0  0  0  0  0  0  0
    0.2073    4.6636   -0.2581 H   0  0  0  0  0  0  0  0  0  0  0  0
    1.9137    4.3728   -0.7918 H   0  0  0  0  0  0  0  0  0  0  0  0
   -0.3109    4.5433    2.1119 H   0  0  0  0  0  0  0  0  0  0  0  0
    0.4284    4.8352    4.4243 H   0  0  0  0  0  0  0  0  0  0  0  0
    2.8137    4.6589    4.9194 H   0  0  0  0  0  0  0  0  0  0  0  0
    4.4245    4.1967    3.1453 H   0  0  0  0  0  0  0  0  0  0  0  0
    3.6849    3.9103    0.8322 H   0  0  0  0  0  0  0  0  0  0  0  0
    2.8211    2.0890   -0.4682 H   0  0  0  0  0  0  0  0  0  0  0  0
  1  2  1  0
  2  3  1  0
  3  4  1  0
  4  5  1  0
  5  6  1  0
  6  7  1  0
  6  8  2  0
  2  9  1  0
  9 10  1  0
 10 11  1  0
 11 12  2  0
 11 13  1  0
 13 14  1  0
 14 15  1  0
 15 16  2  0
 16 17  1  0
 17 18  2  0
 18 19  1  0
 18 20  1  0
 20 21  2  0
 13 22  1  0
 22 23  1  0
 23 24  2  0
 23 25  1  0
 25 26  1  0
 26 27  1  0
 27 28  2  0
 28 29  1  0
 29 30  2  0
 30 31  1  0
 25 32  1  0
 32 33  1  0
 33 34  2  0
 33 35  1  0
 35 36  1  0
 36 37  1  0
 37 38  2  0
 38 39  1  0
 39 40  2  0
 40 41  1  0
 41 42  2  0
 35 43  1  0
 43 44  1  0
 44 45  2  0
 44  9  1  0
 21 15  1  0
 31 27  1  0
 42 37  1  0
  1 46  1  0
  1 47  1  0
  2 48  1  1
  3 49  1  0
  3 50  1  0
  4 51  1  0
  4 52  1  0
  5 53  1  0
  5 54  1  0
  7 55  1  0
  9 56  1  6
 10 57  1  0
 13 58  1  1
 14 59  1  0
 14 60  1  0
 16 61  1  0
 17 62  1  0
 19 63  1  0
 20 64  1  0
 21 65  1  0
 22 66  1  0
 25 67  1  1
 26 68  1  0
 26 69  1  0
 28 70  1  0
 30 71  1  0
 31 72  1  0
 32 73  1  0
 35 74  1  1
 36 75  1  0
 36 76  1  0
 38 77  1  0
 39 78  1  0
 40 79  1  0
 41 80  1  0
 42 81  1  0
 43 82  1  0
M  END
$$$$
[H]c1c([H])c(S(=O)(=O)N([H])[H])c([H])c([H])c1N([H])c1nc([H])c2c(n1)c(C([H])([H])[H])nn2C([H])(C([H])([H])[H])C([H])([H])[H]
     RDKit          3D

 42 44  0  0  0  0  0  0  0  0999 V2000
   -5.4750    1.1100    0.3739 C   0  0  0  0  0  0  0  0  0  0  0  0
   -5.0770   -0.2727    0.8284 C   0  0  0  0  0  0  0  0  0  0  0  0
   -6.0135   -1.2469    0.1449 C   0  0  0  0  0  0  0  0  0  0  0  0
   -3.7040   -0.5977    0.4667 N   0  0  0  0  0  0  0  0  0  0  0  0
   -3.3331   -1.7390   -0.0859 N   0  0  0  0  0  0  0  0  0  0  0  0
   -2.0287   -1.7502   -0.3008 C   0  0  0  0  0  0  0  0  0  0  0  0
   -1.1670   -2.8221   -0.9024 C   0  0  0  0  0  0  0  0  0  0  0  0
   -1.5361   -0.5335    0.1454 C   0  0  0  0  0  0  0  0  0  0  0  0
   -0.3198   -0.0027    0.1790 N   0  0  0  0  0  0  0  0  0  0  0  0
   -0.0878    1.2110    0.6660 C   0  0  0  0  0  0  0  0  0  0  0  0
    1.1805    1.7937    0.7136 N   0  0  0  0  0  0  0  0  0  0  0  0
    2.3982    1.2461    0.2955 C   0  0  0  0  0  0  0  0  0  0  0  0
    2.6708   -0.0798    0.1002 C   0  0  0  0  0  0  0  0  0  0  0  0
    3.9335   -0.4886   -0.3491 C   0  0  0  0  0  0  0  0  0  0  0  0
    4.9490    0.4006   -0.6129 C   0  0  0  0  0  0  0  0  0  0  0  0
    4.6730    1.7231   -0.4160 C   0  0  0  0  0  0  0  0  0  0  0  0
    3.4471    2.1245    0.0202 C   0  0  0  0  0  0  0  0  0  0  0  0
    6.4731   -0.2174   -1.1652 S   0  0  0  0  0  0  0  0  0  0  0  0
    7.5409   -0.5683    0.1524 N   0  0  0  0  0  0  0  0  0  0  0  0
    6.3208   -1.4908   -1.9509 O   0  0  0  0  0  0  0  0  0  0  0  0
    7.1403    0.7825   -2.0432 O   0  0  0  0  0  0  0  0  0  0  0  0
   -1.1651    1.9220    1.1466 N   0  0  0  0  0  0  0  0  0  0  0  0
   -2.4092    1.4389    1.1381 C   0  0  0  0  0  0  0  0  0  0  0  0
   -2.6123    0.1855    0.6292 C   0  0  0  0  0  0  0  0  0  0  0  0
   -6.4729    1.1218   -0.1336 H   0  0  0  0  0  0  0  0  0  0  0  0
   -5.6230    1.7249    1.3017 H   0  0  0  0  0  0  0  0  0  0  0  0
   -4.7686    1.5656   -0.3309 H   0  0  0  0  0  0  0  0  0  0  0  0
   -5.2232   -0.4187    1.9283 H   0  0  0  0  0  0  0  0  0  0  0  0
   -5.9944   -0.9727   -0.9473 H   0  0  0  0  0  0  0  0  0  0  0  0
   -7.0301   -1.0631    0.5361 H   0  0  0  0  0  0  0  0  0  0  0  0
   -5.6752   -2.2980    0.2900 H   0  0  0  0  0  0  0  0  0  0  0  0
   -1.3526   -2.8960   -1.9936 H   0  0  0  0  0  0  0  0  0  0  0  0
   -1.5054   -3.7853   -0.4494 H   0  0  0  0  0  0  0  0  0  0  0  0
   -0.1179   -2.6668   -0.6350 H   0  0  0  0  0  0  0  0  0  0  0  0
    1.2195    2.7782    1.1266 H   0  0  0  0  0  0  0  0  0  0  0  0
    1.9187   -0.8297    0.3046 H   0  0  0  0  0  0  0  0  0  0  0  0
    4.0781   -1.5497   -0.4818 H   0  0  0  0  0  0  0  0  0  0  0  0
    5.4338    2.4476   -0.6086 H   0  0  0  0  0  0  0  0  0  0  0  0
    3.2811    3.1759    0.1583 H   0  0  0  0  0  0  0  0  0  0  0  0
    6.9954   -0.6427    1.0609 H   0  0  0  0  0  0  0  0  0  0  0  0
    8.2751    0.1624    0.2362 H   0  0  0  0  0  0  0  0  0  0  0  0
   -3.2368    2.0185    1.5219 H   0  0  0  0  0  0  0  0  0  0  0  0
  1  2  1  0
  2  3  1  0
  2  4  1  0
  4  5  1  0
  5  6  2  0
  6  7  1  0
  6  8  1  0
  8  9  2  0
  9 10  1  0
 10 11  1  0
 11 12  1  0
 12 13  2  0
 13 14  1  0
 14 15  2  0
 15 16  1  0
 16 17  2  0
 15 18  1  0
 18 19  1  0
 18 20  2  0
 18 21  2  0
 10 22  2  0
 22 23  1  0
 23 24  2  0
 24  4  1  0
 24  8  1  0
 17 12  1  0
  1 25  1  0
  1 26  1  0
  1 27  1  0
  2 28  1  0
  3 29  1  0
  3 30  1  0
  3 31  1  0
  7 32  1  0
  7 33  1  0
  7 34  1  0
 11 35  1  0
 13 36  1  0
 14 37  1  0
 16 38  1  0
 17 39  1  0
 19 40  1  0
 19 41  1  0
 23 42  1  0
M  END
$$$$
[H]C([H])=C([H])C(=O)N1C([H])([H])C([H])([H])C([H])([H])[C@@]([H])(n2nc(C#Cc3c([H])c([H])c4nc([H])n(C([H])([H])c5c([H])c([H])c([H])c([H])c5OC([H])([H])[H])c4c3[H])c3c(N([H])[H])nc([H])nc32)C1([H])[H]
     RDKit          3D

 68 73  0  0  0  0  0  0  0  0999 V2000
    3.8267    2.3021    1.0287 C   0  0  0  0  0  0  0  0  0  0  0  0
    4.5802    1.1676    0.7602 O   0  0  0  0  0  0  0  0  0  0  0  0
    5.9310    1.2133    0.5543 C   0  0  0  0  0  0  0  0  0  0  0  0
    6.5322    2.4706    0.6313 C   0  0  0  0  0  0  0  0  0  0  0  0
    7.8710    2.6623    0.4526 C   0  0  0  0  0  0  0  0  0  0  0  0
    8.6695    1.5768    0.1850 C   0  0  0  0  0  0  0  0  0  0  0  0
    8.0904    0.3487    0.1079 C   0  0  0  0  0  0  0  0  0  0  0  0
    6.7113    0.1396    0.2897 C   0  0  0  0  0  0  0  0  0  0  0  0
    6.2242   -1.2373    0.1355 C   0  0  0  0  0  0  0  0  0  0  0  0
    5.7666   -1.4784   -1.2073 N   0  0  0  0  0  0  0  0  0  0  0  0
    6.6123   -1.7005   -2.2655 C   0  0  0  0  0  0  0  0  0  0  0  0
    5.9204   -1.8434   -3.3985 N   0  0  0  0  0  0  0  0  0  0  0  0
    4.6113   -1.7225   -3.1248 C   0  0  0  0  0  0  0  0  0  0  0  0
    3.4789   -1.8014   -3.9031 C   0  0  0  0  0  0  0  0  0  0  0  0
    2.2541   -1.6553   -3.3095 C   0  0  0  0  0  0  0  0  0  0  0  0
    2.1641   -1.4344   -1.9616 C   0  0  0  0  0  0  0  0  0  0  0  0
    3.2812   -1.3545   -1.1867 C   0  0  0  0  0  0  0  0  0  0  0  0
    4.5452   -1.4944   -1.7411 C   0  0  0  0  0  0  0  0  0  0  0  0
    0.8612   -1.2807   -1.3361 C   0  0  0  0  0  0  0  0  0  0  0  0
   -0.2125   -1.1534   -0.8022 C   0  0  0  0  0  0  0  0  0  0  0  0
   -1.4833   -1.0117   -0.1480 C   0  0  0  0  0  0  0  0  0  0  0  0
   -2.7150   -1.0622   -0.6716 N   0  0  0  0  0  0  0  0  0  0  0  0
   -3.6290   -0.8817    0.2833 N   0  0  0  0  0  0  0  0  0  0  0  0
   -5.0608   -0.8709    0.1026 C   0  0  2  0  0  0  0  0  0  0  0  0
   -5.4580   -1.6251   -1.1423 C   0  0  0  0  0  0  0  0  0  0  0  0
   -6.9519   -1.5570   -1.3190 C   0  0  0  0  0  0  0  0  0  0  0  0
   -7.6444   -0.8193   -0.1940 C   0  0  0  0  0  0  0  0  0  0  0  0
   -7.0238    0.4605    0.0510 N   0  0  0  0  0  0  0  0  0  0  0  0
   -5.5872    0.5617   -0.0595 C   0  0  0  0  0  0  0  0  0  0  0  0
   -7.7888    1.5866    0.3902 C   0  0  0  0  0  0  0  0  0  0  0  0
   -9.0501    1.5262    0.4969 O   0  0  0  0  0  0  0  0  0  0  0  0
   -7.1423    2.8676    0.6301 C   0  0  0  0  0  0  0  0  0  0  0  0
   -7.8646    3.9179    0.9480 C   0  0  0  0  0  0  0  0  0  0  0  0
   -3.0356   -0.7058    1.4702 C   0  0  0  0  0  0  0  0  0  0  0  0
   -3.4504   -0.4883    2.7373 N   0  0  0  0  0  0  0  0  0  0  0  0
   -2.5361   -0.3545    3.7176 C   0  0  0  0  0  0  0  0  0  0  0  0
   -1.2105   -0.4324    3.4664 N   0  0  0  0  0  0  0  0  0  0  0  0
   -0.7545   -0.6473    2.2214 C   0  0  0  0  0  0  0  0  0  0  0  0
    0.6413   -0.7349    1.9220 N   0  0  0  0  0  0  0  0  0  0  0  0
   -1.6777   -0.7852    1.2139 C   0  0  0  0  0  0  0  0  0  0  0  0
    2.7454    2.0307    1.1915 H   0  0  0  0  0  0  0  0  0  0  0  0
    4.1373    2.8194    1.9492 H   0  0  0  0  0  0  0  0  0  0  0  0
    3.9212    3.0260    0.1748 H   0  0  0  0  0  0  0  0  0  0  0  0
    5.9297    3.3523    0.8421 H   0  0  0  0  0  0  0  0  0  0  0  0
    8.3613    3.6318    0.5081 H   0  0  0  0  0  0  0  0  0  0  0  0
    9.7554    1.6853    0.0336 H   0  0  0  0  0  0  0  0  0  0  0  0
    8.7301   -0.5149   -0.1054 H   0  0  0  0  0  0  0  0  0  0  0  0
    5.3459   -1.4329    0.8063 H   0  0  0  0  0  0  0  0  0  0  0  0
    7.0644   -1.9431    0.4111 H   0  0  0  0  0  0  0  0  0  0  0  0
    7.6878   -1.7428   -2.1307 H   0  0  0  0  0  0  0  0  0  0  0  0
    3.5797   -1.9759   -4.9581 H   0  0  0  0  0  0  0  0  0  0  0  0
    1.3510   -1.7204   -3.9457 H   0  0  0  0  0  0  0  0  0  0  0  0
    3.1988   -1.1818   -0.0937 H   0  0  0  0  0  0  0  0  0  0  0  0
   -5.5926   -1.3138    0.9815 H   0  0  0  0  0  0  0  0  0  0  0  0
   -5.0703   -2.6729   -1.1270 H   0  0  0  0  0  0  0  0  0  0  0  0
   -4.9561   -1.1329   -2.0226 H   0  0  0  0  0  0  0  0  0  0  0  0
   -7.2505   -1.0871   -2.2916 H   0  0  0  0  0  0  0  0  0  0  0  0
   -7.3402   -2.5935   -1.3195 H   0  0  0  0  0  0  0  0  0  0  0  0
   -8.6871   -0.5940   -0.5542 H   0  0  0  0  0  0  0  0  0  0  0  0
   -7.7393   -1.4400    0.7168 H   0  0  0  0  0  0  0  0  0  0  0  0
   -5.1221    1.2175    0.6988 H   0  0  0  0  0  0  0  0  0  0  0  0
   -5.3233    0.8636   -1.1109 H   0  0  0  0  0  0  0  0  0  0  0  0
   -6.0767    3.0021    0.5580 H   0  0  0  0  0  0  0  0  0  0  0  0
   -7.4148    4.8972    1.1359 H   0  0  0  0  0  0  0  0  0  0  0  0
   -8.9337    3.8226    1.0286 H   0  0  0  0  0  0  0  0  0  0  0  0
   -2.8832   -0.1838    4.7107 H   0  0  0  0  0  0  0  0  0  0  0  0
    1.1574   -1.6238    2.0112 H   0  0  0  0  0  0  0  0  0  0  0  0
    1.1277    0.1360    1.6082 H   0  0  0  0  0  0  0  0  0  0  0  0
  1  2  1  0
  2  3  1  0
  3  4  2  0
  4  5  1  0
  5  6  2  0
  6  7  1  0
  7  8  2  0
  8  9  1  0
  9 10  1  0
 10 11  1  0
 11 12  2  0
 12 13  1  0
 13 14  2  0
 14 15  1  0
 15 16  2  0
 16 17  1  0
 17 18  2  0
 16 19  1  0
 19 20  3  0
 20 21  1  0
 21 22  2  0
 22 23  1  0
 23 24  1  0
 24 25  1  0
 25 26  1  0
 26 27  1  0
 27 28  1  0
 28 29  1  0
 28 30  1  0
 30 31  2  0
 30 32  1  0
 32 33  2  3
 23 34  1  0
 34 35  2  0
 35 36  1  0
 36 37  2  0
 37 38  1  0
 38 39  1  0
 38 40  2  0
  8  3  1  0
 18 10  1  0
 40 21  1  0
 18 13  1  0
 29 24  1  0
 40 34  1  0
  1 41  1  0
  1 42  1  0
  1 43  1  0
  4 44  1  0
  5 45  1  0
  6 46  1  0
  7 47  1  0
  9 48  1  0
  9 49  1  0
 11 50  1  0
 14 51  1  0
 15 52  1  0
 17 53  1  0
 24 54  1  1
 25 55  1  0
 25 56  1  0
 26 57  1  0
 26 58  1  0
 27 59  1  0
 27 60  1  0
 29 61  1  0
 29 62  1  0
 32 63  1  0
 33 64  1  0
 33 65  1  0
 36 66  1  0
 39 67  1  0
 39 68  1  0
M  END
$$$$
[H]c1c([H])c(C([H])([H])[H])c([H])c(C([H])([H])c2nc(N([H])[H])nc3c([H])c([H])c([H])c([H])c23)c1[H]
     RDKit          3D

 34 36  0  0  0  0  0  0  0  0999 V2000
   -1.8452   -0.4743   -1.8242 C   0  0  0  0  0  0  0  0  0  0  0  0
   -3.0505    0.0662   -2.2412 C   0  0  0  0  0  0  0  0  0  0  0  0
   -3.9184    0.4988   -1.2655 C   0  0  0  0  0  0  0  0  0  0  0  0
   -3.6260    0.4099    0.0741 C   0  0  0  0  0  0  0  0  0  0  0  0
   -4.5820    0.8853    1.1113 C   0  0  0  0  0  0  0  0  0  0  0  0
   -2.3996   -0.1419    0.4437 C   0  0  0  0  0  0  0  0  0  0  0  0
   -1.5032   -0.5866   -0.4981 C   0  0  0  0  0  0  0  0  0  0  0  0
   -0.2170   -1.1660   -0.1313 C   0  0  0  0  0  0  0  0  0  0  0  0
    0.8779   -0.1780   -0.0220 C   0  0  0  0  0  0  0  0  0  0  0  0
    0.7486    1.1227   -0.2290 N   0  0  0  0  0  0  0  0  0  0  0  0
    1.7933    1.9938   -0.1149 C   0  0  0  0  0  0  0  0  0  0  0  0
    1.6269    3.3815   -0.3422 N   0  0  0  0  0  0  0  0  0  0  0  0
    3.0187    1.5626    0.2181 N   0  0  0  0  0  0  0  0  0  0  0  0
    3.1918    0.2484    0.4368 C   0  0  0  0  0  0  0  0  0  0  0  0
    2.1360   -0.6438    0.3230 C   0  0  0  0  0  0  0  0  0  0  0  0
    2.3278   -1.9874    0.5499 C   0  0  0  0  0  0  0  0  0  0  0  0
    3.5614   -2.5000    0.8959 C   0  0  0  0  0  0  0  0  0  0  0  0
    4.6019   -1.6029    1.0055 C   0  0  0  0  0  0  0  0  0  0  0  0
    4.4510   -0.2512    0.7866 C   0  0  0  0  0  0  0  0  0  0  0  0
   -1.1795   -0.8076   -2.6133 H   0  0  0  0  0  0  0  0  0  0  0  0
   -3.2872    0.1391   -3.2966 H   0  0  0  0  0  0  0  0  0  0  0  0
   -4.8694    0.9258   -1.5813 H   0  0  0  0  0  0  0  0  0  0  0  0
   -5.4259    1.3813    0.5928 H   0  0  0  0  0  0  0  0  0  0  0  0
   -5.0088   -0.0301    1.5799 H   0  0  0  0  0  0  0  0  0  0  0  0
   -4.0987    1.5447    1.8541 H   0  0  0  0  0  0  0  0  0  0  0  0
   -2.2118   -0.1922    1.5063 H   0  0  0  0  0  0  0  0  0  0  0  0
    0.0980   -1.9069   -0.9144 H   0  0  0  0  0  0  0  0  0  0  0  0
   -0.3279   -1.6657    0.8674 H   0  0  0  0  0  0  0  0  0  0  0  0
    1.4534    4.0093    0.4580 H   0  0  0  0  0  0  0  0  0  0  0  0
    1.6794    3.7570   -1.2992 H   0  0  0  0  0  0  0  0  0  0  0  0
    1.4881   -2.6541    0.4536 H   0  0  0  0  0  0  0  0  0  0  0  0
    3.6601   -3.5640    1.0636 H   0  0  0  0  0  0  0  0  0  0  0  0
    5.5799   -2.0195    1.2812 H   0  0  0  0  0  0  0  0  0  0  0  0
    5.2570    0.4458    0.8713 H   0  0  0  0  0  0  0  0  0  0  0  0
  1  2  2  0
  2  3  1  0
  3  4  2  0
  4  5  1  0
  4  6  1  0
  6  7  2  0
  7  8  1  0
  8  9  1  0
  9 10  2  0
 10 11  1  0
 11 12  1  0
 11 13  2  0
 13 14  1  0
 14 15  2  0
 15 16  1  0
 16 17  2  0
 17 18  1  0
 18 19  2  0
  7  1  1  0
 15  9  1  0
 19 14  1  0
  1 20  1  0
  2 21  1  0
  3 22  1  0
  5 23  1  0
  5 24  1  0
  5 25  1  0
  6 26  1  0
  8 27  1  0
  8 28  1  0
 12 29  1  0
 12 30  1  0
 16 31  1  0
 17 32  1  0
 18 33  1  0
 19 34  1  0
M  END
$$$$
[H]N=C(N([H])[H])N([H])C([H])([H])C([H])([H])C([H])([H])[C@@]([H])(C(=O)O[H])N([H])C(=O)[C@@]1([H])N(C(=O)[C@@]([H])(N([H])[H])C([H])([H])c2c([H])c([H])c(O[H])c([H])c2[H])C([H])([H])C([H])([H])C1([H])[H]
     RDKit          3D

 61 62  0  0  0  0  0  0  0  0999 V2000
   -5.9967    2.8995    1.6449 N   0  0  0  0  0  0  0  0  0  0  0  0
   -6.4410    1.8250    0.8200 C   0  0  0  0  0  0  0  0  0  0  0  0
   -7.7155    1.7112    0.6765 N   0  0  0  0  0  0  0  0  0  0  0  0
   -5.5528    0.9248    0.1873 N   0  0  0  0  0  0  0  0  0  0  0  0
   -4.3458    1.3805   -0.4626 C   0  0  0  0  0  0  0  0  0  0  0  0
   -3.5652    0.2323   -1.0580 C   0  0  0  0  0  0  0  0  0  0  0  0
   -3.1740   -0.7250    0.0218 C   0  0  0  0  0  0  0  0  0  0  0  0
   -2.3984   -1.9023   -0.4528 C   0  0  2  0  0  0  0  0  0  0  0  0
   -1.1600   -1.6354   -1.1024 N   0  0  0  0  0  0  0  0  0  0  0  0
    0.0974   -2.1421   -0.6780 C   0  0  0  0  0  0  0  0  0  0  0  0
    0.0631   -2.8783    0.3683 O   0  0  0  0  0  0  0  0  0  0  0  0
    1.3379   -1.9044   -1.3183 C   0  0  2  0  0  0  0  0  0  0  0  0
    2.5931   -2.5493   -0.7982 C   0  0  0  0  0  0  0  0  0  0  0  0
    3.6008   -2.0480   -1.8680 C   0  0  0  0  0  0  0  0  0  0  0  0
    2.8202   -1.0261   -2.7134 C   0  0  0  0  0  0  0  0  0  0  0  0
    1.8427   -0.6034   -1.6184 N   0  0  0  0  0  0  0  0  0  0  0  0
    1.7957    0.7065   -1.1813 C   0  0  0  0  0  0  0  0  0  0  0  0
    2.3865    1.5601   -1.9911 O   0  0  0  0  0  0  0  0  0  0  0  0
    1.2432    1.3661   -0.0148 C   0  0  1  0  0  0  0  0  0  0  0  0
    0.6312    0.5687    0.9921 N   0  0  0  0  0  0  0  0  0  0  0  0
    2.1890    2.3470    0.6688 C   0  0  0  0  0  0  0  0  0  0  0  0
    3.4271    1.7953    1.1766 C   0  0  0  0  0  0  0  0  0  0  0  0
    4.5833    1.8133    0.4191 C   0  0  0  0  0  0  0  0  0  0  0  0
    5.7870    1.2720    0.9046 C   0  0  0  0  0  0  0  0  0  0  0  0
    5.8509    0.7112    2.1422 C   0  0  0  0  0  0  0  0  0  0  0  0
    7.0302    0.1622    2.6601 O   0  0  0  0  0  0  0  0  0  0  0  0
    4.7290    0.6792    2.9120 C   0  0  0  0  0  0  0  0  0  0  0  0
    3.5546    1.2120    2.4274 C   0  0  0  0  0  0  0  0  0  0  0  0
   -3.3088   -2.7453   -1.2816 C   0  0  0  0  0  0  0  0  0  0  0  0
   -4.5592   -3.0941   -0.7870 O   0  0  0  0  0  0  0  0  0  0  0  0
   -2.9953   -3.1587   -2.4169 O   0  0  0  0  0  0  0  0  0  0  0  0
   -5.6972    2.6927    2.6220 H   0  0  0  0  0  0  0  0  0  0  0  0
   -5.9503    3.8913    1.3335 H   0  0  0  0  0  0  0  0  0  0  0  0
   -8.0729    0.9395    0.0822 H   0  0  0  0  0  0  0  0  0  0  0  0
   -5.8299   -0.0885    0.2202 H   0  0  0  0  0  0  0  0  0  0  0  0
   -4.6307    2.1114   -1.2576 H   0  0  0  0  0  0  0  0  0  0  0  0
   -3.7659    1.9457    0.2995 H   0  0  0  0  0  0  0  0  0  0  0  0
   -4.2022   -0.2143   -1.8472 H   0  0  0  0  0  0  0  0  0  0  0  0
   -2.6450    0.6032   -1.5325 H   0  0  0  0  0  0  0  0  0  0  0  0
   -2.7081   -0.1637    0.8367 H   0  0  0  0  0  0  0  0  0  0  0  0
   -4.1241   -1.1451    0.4717 H   0  0  0  0  0  0  0  0  0  0  0  0
   -2.1654   -2.5266    0.4598 H   0  0  0  0  0  0  0  0  0  0  0  0
   -1.1733   -1.0233   -1.9523 H   0  0  0  0  0  0  0  0  0  0  0  0
    1.2729   -2.3963   -2.4030 H   0  0  0  0  0  0  0  0  0  0  0  0
    2.6149   -3.6345   -0.8710 H   0  0  0  0  0  0  0  0  0  0  0  0
    2.9073   -2.1758    0.1844 H   0  0  0  0  0  0  0  0  0  0  0  0
    3.8827   -2.8480   -2.5567 H   0  0  0  0  0  0  0  0  0  0  0  0
    4.4381   -1.5270   -1.4075 H   0  0  0  0  0  0  0  0  0  0  0  0
    2.1866   -1.4878   -3.4630 H   0  0  0  0  0  0  0  0  0  0  0  0
    3.4086   -0.1904   -3.0458 H   0  0  0  0  0  0  0  0  0  0  0  0
    0.4208    2.0483   -0.4096 H   0  0  0  0  0  0  0  0  0  0  0  0
    0.6797    1.1008    1.9188 H   0  0  0  0  0  0  0  0  0  0  0  0
   -0.4300    0.5339    0.8527 H   0  0  0  0  0  0  0  0  0  0  0  0
    2.3532    3.2010   -0.0181 H   0  0  0  0  0  0  0  0  0  0  0  0
    1.5981    2.7745    1.5287 H   0  0  0  0  0  0  0  0  0  0  0  0
    4.6719    2.2378   -0.5643 H   0  0  0  0  0  0  0  0  0  0  0  0
    6.6924    1.2856    0.3122 H   0  0  0  0  0  0  0  0  0  0  0  0
    7.0674   -0.2493    3.5752 H   0  0  0  0  0  0  0  0  0  0  0  0
    4.7701    0.2307    3.9081 H   0  0  0  0  0  0  0  0  0  0  0  0
    2.7103    1.1698    3.0634 H   0  0  0  0  0  0  0  0  0  0  0  0
   -4.6299   -3.8498   -0.0951 H   0  0  0  0  0  0  0  0  0  0  0  0
  1  2  1  0
  2  3  2  3
  2  4  1  0
  4  5  1  0
  5  6  1  0
  6  7  1  0
  7  8  1  0
  8  9  1  0
  9 10  1  0
 10 11  2  0
 10 12  1  0
 12 13  1  0
 13 14  1  0
 14 15  1  0
 15 16  1  0
 16 17  1  0
 17 18  2  0
 17 19  1  0
 19 20  1  0
 19 21  1  0
 21 22  1  0
 22 23  2  0
 23 24  1  0
 24 25  2  0
 25 26  1  0
 25 27  1  0
 27 28  2  0
  8 29  1  0
 29 30  1  0
 29 31  2  0
 16 12  1  0
 28 22  1  0
  1 32  1  0
  1 33  1  0
  3 34  1  0
  4 35  1  0
  5 36  1  0
  5 37  1  0
  6 38  1  0
  6 39  1  0
  7 40  1  0
  7 41  1  0
  8 42  1  1
  9 43  1  0
 12 44  1  6
 13 45  1  0
 13 46  1  0
 14 47  1  0
 14 48  1  0
 15 49  1  0
 15 50  1  0
 19 51  1  6
 20 52  1  0
 20 53  1  0
 21 54  1  0
 21 55  1  0
 23 56  1  0
 24 57  1  0
 26 58  1  0
 27 59  1  0
 28 60  1  0
 30 61  1  0
M  END
$$$$
