[H]c1nc(N([H])c2nc([H])c([H])c3c([H])c([N+](=O)[O-])c([H])c([H])c23)c([H])c(N([H])C([H])([H])C2([H])C([H])([H])C2([H])[H])n1
     RDKit          3D

 41 44  0  0  0  0  0  0  0  0999 V2000
    8.1546    0.1350    1.0859 O   0  0  0  0  0  0  0  0  0  0  0  0
    7.4018    0.4086   -0.0218 N   0  0  0  0  0  0  0  0  0  0  0  0
    7.9783    0.7647   -1.0663 O   0  0  0  0  0  0  0  0  0  0  0  0
    5.9907    0.2830    0.0383 C   0  0  0  0  0  0  0  0  0  0  0  0
    5.3758   -0.1098    1.1955 C   0  0  0  0  0  0  0  0  0  0  0  0
    3.9884   -0.2190    1.2068 C   0  0  0  0  0  0  0  0  0  0  0  0
    3.1887    0.0437    0.1235 C   0  0  0  0  0  0  0  0  0  0  0  0
    1.7929   -0.0765    0.1695 C   0  0  0  0  0  0  0  0  0  0  0  0
    1.1572   -0.4720    1.3302 N   0  0  0  0  0  0  0  0  0  0  0  0
   -0.2289   -0.6575    1.5976 C   0  0  0  0  0  0  0  0  0  0  0  0
   -1.2185   -0.4596    0.6835 C   0  0  0  0  0  0  0  0  0  0  0  0
   -2.5671   -0.6536    0.9885 C   0  0  0  0  0  0  0  0  0  0  0  0
   -3.5813   -0.4408    0.0184 N   0  0  0  0  0  0  0  0  0  0  0  0
   -4.9392   -0.6559    0.3917 C   0  0  0  0  0  0  0  0  0  0  0  0
   -5.9334   -0.4107   -0.6842 C   0  0  0  0  0  0  0  0  0  0  0  0
   -5.9155    1.0208   -1.2233 C   0  0  0  0  0  0  0  0  0  0  0  0
   -5.6025   -0.1479   -2.0823 C   0  0  0  0  0  0  0  0  0  0  0  0
   -2.8414   -1.0495    2.2424 N   0  0  0  0  0  0  0  0  0  0  0  0
   -1.8852   -1.2508    3.1594 C   0  0  0  0  0  0  0  0  0  0  0  0
   -0.6158   -1.0576    2.8369 N   0  0  0  0  0  0  0  0  0  0  0  0
    1.1692    0.2159   -0.9682 N   0  0  0  0  0  0  0  0  0  0  0  0
    1.7572    0.6024   -2.1112 C   0  0  0  0  0  0  0  0  0  0  0  0
    3.1364    0.7278   -2.1789 C   0  0  0  0  0  0  0  0  0  0  0  0
    3.8271    0.4394   -1.0374 C   0  0  0  0  0  0  0  0  0  0  0  0
    5.2157    0.5547   -1.0689 C   0  0  0  0  0  0  0  0  0  0  0  0
    5.9463   -0.3350    2.0946 H   0  0  0  0  0  0  0  0  0  0  0  0
    3.5640   -0.5270    2.1290 H   0  0  0  0  0  0  0  0  0  0  0  0
    1.7719   -0.6814    2.1875 H   0  0  0  0  0  0  0  0  0  0  0  0
   -1.0437   -0.1437   -0.3286 H   0  0  0  0  0  0  0  0  0  0  0  0
   -3.3264   -0.1369   -0.9329 H   0  0  0  0  0  0  0  0  0  0  0  0
   -5.0454   -1.6732    0.8477 H   0  0  0  0  0  0  0  0  0  0  0  0
   -5.1596    0.0488    1.2466 H   0  0  0  0  0  0  0  0  0  0  0  0
   -6.9481   -0.8456   -0.4603 H   0  0  0  0  0  0  0  0  0  0  0  0
   -6.8824    1.5202   -1.2191 H   0  0  0  0  0  0  0  0  0  0  0  0
   -5.0660    1.6741   -0.9545 H   0  0  0  0  0  0  0  0  0  0  0  0
   -4.6015   -0.2134   -2.5204 H   0  0  0  0  0  0  0  0  0  0  0  0
   -6.4045   -0.3873   -2.8410 H   0  0  0  0  0  0  0  0  0  0  0  0
   -2.1926   -1.5728    4.1579 H   0  0  0  0  0  0  0  0  0  0  0  0
    1.1869    0.8253   -3.0024 H   0  0  0  0  0  0  0  0  0  0  0  0
    3.6667    1.0322   -3.0618 H   0  0  0  0  0  0  0  0  0  0  0  0
    5.7292    0.8626   -1.9679 H   0  0  0  0  0  0  0  0  0  0  0  0
  1  2  1  0
  2  3  2  0
  2  4  1  0
  4  5  2  0
  5  6  1  0
  6  7  2  0
  7  8  1  0
  8  9  1  0
  9 10  1  0
 10 11  2  0
 11 12  1  0
 12 13  1  0
 13 14  1  0
 14 15  1  0
 15 16  1  0
 16 17  1  0
 12 18  2  0
 18 19  1  0
 19 20  2  0
  8 21  2  0
 21 22  1  0
 22 23  2  0
 23 24  1  0
 24 25  2  0
 25  4  1  0
 24  7  1  0
 20 10  1  0
 17 15  1  0
  5 26  1  0
  6 27  1  0
  9 28  1  0
 11 29  1  0
 13 30  1  0
 14 31  1  0
 14 32  1  0
 15 33  1  0
 16 34  1  0
 16 35  1  0
 17 36  1  0
 17 37  1  0
 19 38  1  0
 22 39  1  0
 23 40  1  0
 25 41  1  0
M  CHG  2   1  -1   2   1
M  END
$$$$
[H]c1c([H])c(N([H])C(=O)N([H])c2c([H])c([H])c(-c3c([H])c([H])c([H])c4onc(N([H])[H])c34)c([H])c2[H])c([H])c(C([H])([H])[H])c1[H]
     RDKit          3D

 45 48  0  0  0  0  0  0  0  0999 V2000
    8.2670   -0.4345   -0.4648 C   0  0  0  0  0  0  0  0  0  0  0  0
    6.9798   -0.2594    0.2625 C   0  0  0  0  0  0  0  0  0  0  0  0
    6.9961    0.1588    1.5897 C   0  0  0  0  0  0  0  0  0  0  0  0
    5.8215    0.3267    2.2799 C   0  0  0  0  0  0  0  0  0  0  0  0
    4.5812    0.0777    1.6533 C   0  0  0  0  0  0  0  0  0  0  0  0
    4.5336   -0.3335    0.3502 C   0  0  0  0  0  0  0  0  0  0  0  0
    3.3359   -0.5770   -0.3475 N   0  0  0  0  0  0  0  0  0  0  0  0
    2.0307   -0.1371   -0.0580 C   0  0  0  0  0  0  0  0  0  0  0  0
    1.8843    0.5794    0.9524 O   0  0  0  0  0  0  0  0  0  0  0  0
    0.9753   -0.5184   -0.9042 N   0  0  0  0  0  0  0  0  0  0  0  0
   -0.3811   -0.1603   -0.7571 C   0  0  0  0  0  0  0  0  0  0  0  0
   -1.3298   -0.8045   -1.5514 C   0  0  0  0  0  0  0  0  0  0  0  0
   -2.6586   -0.4895   -1.4632 C   0  0  0  0  0  0  0  0  0  0  0  0
   -3.1495    0.4662   -0.6022 C   0  0  0  0  0  0  0  0  0  0  0  0
   -2.2185    1.1082    0.1865 C   0  0  0  0  0  0  0  0  0  0  0  0
   -0.8647    0.7871    0.0959 C   0  0  0  0  0  0  0  0  0  0  0  0
   -4.5790    0.8009   -0.4957 C   0  0  0  0  0  0  0  0  0  0  0  0
   -5.0202    2.0769   -0.8282 C   0  0  0  0  0  0  0  0  0  0  0  0
   -6.3583    2.4011   -0.7797 C   0  0  0  0  0  0  0  0  0  0  0  0
   -7.3073    1.4868   -0.4037 C   0  0  0  0  0  0  0  0  0  0  0  0
   -6.8662    0.2224   -0.0731 C   0  0  0  0  0  0  0  0  0  0  0  0
   -7.5479   -0.8273    0.3186 O   0  0  0  0  0  0  0  0  0  0  0  0
   -6.7412   -1.8169    0.5316 N   0  0  0  0  0  0  0  0  0  0  0  0
   -5.4692   -1.4234    0.2746 C   0  0  0  0  0  0  0  0  0  0  0  0
   -4.3487   -2.2728    0.4325 N   0  0  0  0  0  0  0  0  0  0  0  0
   -5.5201   -0.1175   -0.1180 C   0  0  0  0  0  0  0  0  0  0  0  0
    5.7640   -0.4846   -0.2929 C   0  0  0  0  0  0  0  0  0  0  0  0
    8.9942    0.2924   -0.0593 H   0  0  0  0  0  0  0  0  0  0  0  0
    8.0586   -0.1108   -1.5221 H   0  0  0  0  0  0  0  0  0  0  0  0
    8.6192   -1.4661   -0.4903 H   0  0  0  0  0  0  0  0  0  0  0  0
    7.9352    0.3497    2.0718 H   0  0  0  0  0  0  0  0  0  0  0  0
    5.8116    0.6484    3.3038 H   0  0  0  0  0  0  0  0  0  0  0  0
    3.6942    0.2171    2.2637 H   0  0  0  0  0  0  0  0  0  0  0  0
    3.4422   -1.1883   -1.2201 H   0  0  0  0  0  0  0  0  0  0  0  0
    1.2699   -1.1359   -1.7254 H   0  0  0  0  0  0  0  0  0  0  0  0
   -0.9858   -1.5474   -2.2267 H   0  0  0  0  0  0  0  0  0  0  0  0
   -3.3637   -1.0188   -2.1161 H   0  0  0  0  0  0  0  0  0  0  0  0
   -2.5763    1.8668    0.8748 H   0  0  0  0  0  0  0  0  0  0  0  0
   -0.2204    1.3517    0.7469 H   0  0  0  0  0  0  0  0  0  0  0  0
   -4.2810    2.7940   -1.1222 H   0  0  0  0  0  0  0  0  0  0  0  0
   -6.7073    3.4012   -1.0405 H   0  0  0  0  0  0  0  0  0  0  0  0
   -8.3574    1.7248   -0.3615 H   0  0  0  0  0  0  0  0  0  0  0  0
   -3.5880   -2.0645    1.1106 H   0  0  0  0  0  0  0  0  0  0  0  0
   -4.2803   -3.1408   -0.1515 H   0  0  0  0  0  0  0  0  0  0  0  0
    5.7260   -0.8090   -1.3216 H   0  0  0  0  0  0  0  0  0  0  0  0
  1  2  1  0
  2  3  2  0
  3  4  1  0
  4  5  2  0
  5  6  1  0
  6  7  1  0
  7  8  1  0
  8  9  2  0
  8 10  1  0
 10 11  1  0
 11 12  2  0
 12 13  1  0
 13 14  2  0
 14 15  1  0
 15 16  2  0
 14 17  1  0
 17 18  2  0
 18 19  1  0
 19 20  2  0
 20 21  1  0
 21 22  1  0
 22 23  1  0
 23 24  2  0
 24 25  1  0
 24 26  1  0
  6 27  2  0
 27  2  1  0
 16 11  1  0
 26 17  1  0
 26 21  2  0
  1 28  1  0
  1 29  1  0
  1 30  1  0
  3 31  1  0
  4 32  1  0
  5 33  1  0
  7 34  1  0
 10 35  1  0
 12 36  1  0
 13 37  1  0
 15 38  1  0
 16 39  1  0
 18 40  1  0
 19 41  1  0
 20 42  1  0
 25 43  1  0
 25 44  1  0
 27 45  1  0
M  END
$$$$
[H]c1nc2c([H])c(OC([H])([H])C([H])([H])N3C([H])([H])C([H])([H])C([H])([H])C([H])([H])C3([H])[H])c(OC([H])([H])[H])c([H])c2c(N([H])c2c([H])c(N3C([H])([H])C([H])([H])OC([H])([H])C3([H])[H])c([H])c(C(F)(F)F)c2[H])c1C(=O)N([H])[H]
     RDKit          3D

 75 79  0  0  0  0  0  0  0  0999 V2000
    2.0871   -2.4242   -2.6316 C   0  0  0  0  0  0  0  0  0  0  0  0
    2.6986   -1.5886   -1.6911 O   0  0  0  0  0  0  0  0  0  0  0  0
    2.0632   -0.8999   -0.6953 C   0  0  0  0  0  0  0  0  0  0  0  0
    0.6906   -0.9183   -0.4522 C   0  0  0  0  0  0  0  0  0  0  0  0
    0.1252   -0.1916    0.5660 C   0  0  0  0  0  0  0  0  0  0  0  0
   -1.2528   -0.2801    0.9181 C   0  0  0  0  0  0  0  0  0  0  0  0
   -2.0618   -1.0376    0.0690 N   0  0  0  0  0  0  0  0  0  0  0  0
   -3.4366   -1.0934   -0.2206 C   0  0  0  0  0  0  0  0  0  0  0  0
   -4.3443   -0.0794   -0.1905 C   0  0  0  0  0  0  0  0  0  0  0  0
   -5.6975   -0.3371   -0.3592 C   0  0  0  0  0  0  0  0  0  0  0  0
   -6.1789   -1.6146   -0.5669 C   0  0  0  0  0  0  0  0  0  0  0  0
   -5.2653   -2.6361   -0.6029 C   0  0  0  0  0  0  0  0  0  0  0  0
   -3.9399   -2.3941   -0.4369 C   0  0  0  0  0  0  0  0  0  0  0  0
   -5.7496   -4.0448   -0.8187 C   0  0  0  0  0  0  0  0  0  0  0  0
   -6.5318   -4.0237   -1.9424 F   0  0  0  0  0  0  0  0  0  0  0  0
   -6.5423   -4.3470    0.2603 F   0  0  0  0  0  0  0  0  0  0  0  0
   -4.6766   -4.9045   -0.9452 F   0  0  0  0  0  0  0  0  0  0  0  0
   -6.6265    0.7189   -0.2009 N   0  0  0  0  0  0  0  0  0  0  0  0
   -7.8692    0.5148    0.5579 C   0  0  0  0  0  0  0  0  0  0  0  0
   -9.0132    0.7717   -0.3749 C   0  0  0  0  0  0  0  0  0  0  0  0
   -8.7845    1.8808   -1.1673 O   0  0  0  0  0  0  0  0  0  0  0  0
   -7.7955    2.7060   -0.6758 C   0  0  0  0  0  0  0  0  0  0  0  0
   -6.4056    2.0113   -0.7389 C   0  0  0  0  0  0  0  0  0  0  0  0
   -1.7543    0.3820    2.0036 C   0  0  0  0  0  0  0  0  0  0  0  0
   -0.8363    1.1875    2.7726 C   0  0  0  0  0  0  0  0  0  0  0  0
    0.4311    1.2498    2.4313 N   0  0  0  0  0  0  0  0  0  0  0  0
    0.9215    0.5848    1.3739 C   0  0  0  0  0  0  0  0  0  0  0  0
    2.3099    0.6064    1.1292 C   0  0  0  0  0  0  0  0  0  0  0  0
    2.8781   -0.1224    0.1235 C   0  0  0  0  0  0  0  0  0  0  0  0
    4.2768   -0.0815   -0.0321 O   0  0  0  0  0  0  0  0  0  0  0  0
    5.0453    0.6903    0.8863 C   0  0  0  0  0  0  0  0  0  0  0  0
    6.5034    0.4703    0.8050 C   0  0  0  0  0  0  0  0  0  0  0  0
    7.3179    0.7089   -0.2637 N   0  0  0  0  0  0  0  0  0  0  0  0
    7.7297    1.9991   -0.6382 C   0  0  0  0  0  0  0  0  0  0  0  0
    9.1186    1.9794   -1.2843 C   0  0  0  0  0  0  0  0  0  0  0  0
    9.9502    0.9348   -0.5866 C   0  0  0  0  0  0  0  0  0  0  0  0
    9.3974   -0.4579   -0.7986 C   0  0  0  0  0  0  0  0  0  0  0  0
    7.8926   -0.4012   -0.9808 C   0  0  0  0  0  0  0  0  0  0  0  0
   -2.9920    0.0944    2.7210 C   0  0  0  0  0  0  0  0  0  0  0  0
   -3.4918    1.1633    3.5492 N   0  0  0  0  0  0  0  0  0  0  0  0
   -3.6928   -0.9202    2.7239 O   0  0  0  0  0  0  0  0  0  0  0  0
    1.2431   -3.0051   -2.2154 H   0  0  0  0  0  0  0  0  0  0  0  0
    2.8314   -3.1497   -3.0738 H   0  0  0  0  0  0  0  0  0  0  0  0
    1.6563   -1.8874   -3.5169 H   0  0  0  0  0  0  0  0  0  0  0  0
    0.1153   -1.5302   -1.1042 H   0  0  0  0  0  0  0  0  0  0  0  0
   -1.5232   -1.7889   -0.5227 H   0  0  0  0  0  0  0  0  0  0  0  0
   -3.9919    0.9364   -0.0593 H   0  0  0  0  0  0  0  0  0  0  0  0
   -7.2295   -1.8119   -0.6975 H   0  0  0  0  0  0  0  0  0  0  0  0
   -3.2477   -3.2651   -0.4765 H   0  0  0  0  0  0  0  0  0  0  0  0
   -7.8913   -0.4972    1.0168 H   0  0  0  0  0  0  0  0  0  0  0  0
   -7.8786    1.2110    1.4546 H   0  0  0  0  0  0  0  0  0  0  0  0
   -9.0627   -0.1253   -1.0593 H   0  0  0  0  0  0  0  0  0  0  0  0
  -10.0005    0.7968    0.1432 H   0  0  0  0  0  0  0  0  0  0  0  0
   -7.7346    3.5583   -1.3687 H   0  0  0  0  0  0  0  0  0  0  0  0
   -8.0106    3.0853    0.3276 H   0  0  0  0  0  0  0  0  0  0  0  0
   -5.7582    2.6102   -0.0757 H   0  0  0  0  0  0  0  0  0  0  0  0
   -6.0980    2.0422   -1.7838 H   0  0  0  0  0  0  0  0  0  0  0  0
   -1.2685    1.7088    3.6129 H   0  0  0  0  0  0  0  0  0  0  0  0
    2.8933    1.2418    1.7887 H   0  0  0  0  0  0  0  0  0  0  0  0
    4.7120    0.3903    1.8991 H   0  0  0  0  0  0  0  0  0  0  0  0
    4.7371    1.7517    0.7585 H   0  0  0  0  0  0  0  0  0  0  0  0
    6.9267    1.0063    1.7567 H   0  0  0  0  0  0  0  0  0  0  0  0
    6.6459   -0.6439    1.1384 H   0  0  0  0  0  0  0  0  0  0  0  0
    7.7966    2.7062    0.2583 H   0  0  0  0  0  0  0  0  0  0  0  0
    7.0422    2.4864   -1.3412 H   0  0  0  0  0  0  0  0  0  0  0  0
    8.9619    1.7771   -2.3539 H   0  0  0  0  0  0  0  0  0  0  0  0
    9.5566    2.9964   -1.0897 H   0  0  0  0  0  0  0  0  0  0  0  0
    9.8981    1.1561    0.4887 H   0  0  0  0  0  0  0  0  0  0  0  0
   10.9818    0.9987   -0.9748 H   0  0  0  0  0  0  0  0  0  0  0  0
    9.6594   -1.1302    0.0043 H   0  0  0  0  0  0  0  0  0  0  0  0
    9.8238   -0.8428   -1.7590 H   0  0  0  0  0  0  0  0  0  0  0  0
    7.5527   -0.3751   -2.0218 H   0  0  0  0  0  0  0  0  0  0  0  0
    7.4815   -1.3398   -0.5243 H   0  0  0  0  0  0  0  0  0  0  0  0
   -3.0338    1.3244    4.4520 H   0  0  0  0  0  0  0  0  0  0  0  0
   -4.2849    1.7521    3.2359 H   0  0  0  0  0  0  0  0  0  0  0  0
  1  2  1  0
  2  3  1  0
  3  4  2  0
  4  5  1  0
  5  6  2  0
  6  7  1  0
  7  8  1  0
  8  9  2  0
  9 10  1  0
 10 11  2  0
 11 12  1  0
 12 13  2  0
 12 14  1  0
 14 15  1  0
 14 16  1  0
 14 17  1  0
 10 18  1  0
 18 19  1  0
 19 20  1  0
 20 21  1  0
 21 22  1  0
 22 23  1  0
  6 24  1  0
 24 25  2  0
 25 26  1  0
 26 27  2  0
 27 28  1  0
 28 29  2  0
 29 30  1  0
 30 31  1  0
 31 32  1  0
 32 33  1  0
 33 34  1  0
 34 35  1  0
 35 36  1  0
 36 37  1  0
 37 38  1  0
 24 39  1  0
 39 40  1  0
 39 41  2  0
 29  3  1  0
 38 33  1  0
 27  5  1  0
 13  8  1  0
 23 18  1  0
  1 42  1  0
  1 43  1  0
  1 44  1  0
  4 45  1  0
  7 46  1  0
  9 47  1  0
 11 48  1  0
 13 49  1  0
 19 50  1  0
 19 51  1  0
 20 52  1  0
 20 53  1  0
 22 54  1  0
 22 55  1  0
 23 56  1  0
 23 57  1  0
 25 58  1  0
 28 59  1  0
 31 60  1  0
 31 61  1  0
 32 62  1  0
 32 63  1  0
 34 64  1  0
 34 65  1  0
 35 66  1  0
 35 67  1  0
 36 68  1  0
 36 69  1  0
 37 70  1  0
 37 71  1  0
 38 72  1  0
 38 73  1  0
 40 74  1  0
 40 75  1  0
M  END
$$$$
[H]c1nc(N([H])c2c([H])c(C([H])([H])N3C([H])([H])C([H])([H])OC([H])([H])C3([H])[H])c([H])c([H])c2SC([H])([H])[H])nc(N([H])c2c([H])c([H])c([H])c([H])c2S(=O)(=O)C([H])(C([H])([H])[H])C([H])([H])[H])c1Cl
     RDKit          3D

 66 69  0  0  0  0  0  0  0  0999 V2000
   -2.0678   -2.8182    3.5635 C   0  0  0  0  0  0  0  0  0  0  0  0
   -1.9143   -1.0349    3.8740 S   0  0  0  0  0  0  0  0  0  0  0  0
   -2.8212   -0.1826    2.6097 C   0  0  0  0  0  0  0  0  0  0  0  0
   -4.1437    0.1148    2.7920 C   0  0  0  0  0  0  0  0  0  0  0  0
   -4.8845    0.7761    1.8323 C   0  0  0  0  0  0  0  0  0  0  0  0
   -4.2952    1.1550    0.6532 C   0  0  0  0  0  0  0  0  0  0  0  0
   -5.0591    1.8700   -0.4067 C   0  0  0  0  0  0  0  0  0  0  0  0
   -5.6815    0.9322   -1.3499 N   0  0  0  0  0  0  0  0  0  0  0  0
   -6.3840    1.7875   -2.3193 C   0  0  0  0  0  0  0  0  0  0  0  0
   -7.0722    0.8649   -3.2861 C   0  0  0  0  0  0  0  0  0  0  0  0
   -8.1355    0.2670   -2.5771 O   0  0  0  0  0  0  0  0  0  0  0  0
   -7.6679   -0.5112   -1.5482 C   0  0  0  0  0  0  0  0  0  0  0  0
   -6.6946    0.1776   -0.6372 C   0  0  0  0  0  0  0  0  0  0  0  0
   -2.9512    0.8572    0.4586 C   0  0  0  0  0  0  0  0  0  0  0  0
   -2.1855    0.1917    1.4118 C   0  0  0  0  0  0  0  0  0  0  0  0
   -0.8364   -0.1402    1.2901 N   0  0  0  0  0  0  0  0  0  0  0  0
    0.0331    0.1127    0.2015 C   0  0  0  0  0  0  0  0  0  0  0  0
   -0.3058    0.7321   -0.9300 N   0  0  0  0  0  0  0  0  0  0  0  0
    0.5543    0.9484   -1.9305 C   0  0  0  0  0  0  0  0  0  0  0  0
    1.8546    0.5202   -1.8077 C   0  0  0  0  0  0  0  0  0  0  0  0
    2.9587    0.8024   -3.1019 Cl  0  0  0  0  0  0  0  0  0  0  0  0
    2.2861   -0.1482   -0.6274 C   0  0  0  0  0  0  0  0  0  0  0  0
    3.6273   -0.5584   -0.5317 N   0  0  0  0  0  0  0  0  0  0  0  0
    4.2582   -1.2373    0.5177 C   0  0  0  0  0  0  0  0  0  0  0  0
    3.5763   -1.7801    1.5793 C   0  0  0  0  0  0  0  0  0  0  0  0
    4.2631   -2.4740    2.5569 C   0  0  0  0  0  0  0  0  0  0  0  0
    5.6256   -2.6274    2.4775 C   0  0  0  0  0  0  0  0  0  0  0  0
    6.3090   -2.0795    1.4073 C   0  0  0  0  0  0  0  0  0  0  0  0
    5.6649   -1.3874    0.4238 C   0  0  0  0  0  0  0  0  0  0  0  0
    6.6046   -0.7041   -0.8594 S   0  0  0  0  0  0  0  0  0  0  0  0
    6.2436   -1.2123   -2.2242 O   0  0  0  0  0  0  0  0  0  0  0  0
    8.0744   -1.0391   -0.5752 O   0  0  0  0  0  0  0  0  0  0  0  0
    6.5550    1.0670   -0.9174 C   0  0  0  0  0  0  0  0  0  0  0  0
    7.1843    1.6641    0.3357 C   0  0  0  0  0  0  0  0  0  0  0  0
    7.4467    1.4811   -2.0931 C   0  0  0  0  0  0  0  0  0  0  0  0
    1.3284   -0.2889    0.2698 N   0  0  0  0  0  0  0  0  0  0  0  0
   -1.3834   -3.1624    2.7541 H   0  0  0  0  0  0  0  0  0  0  0  0
   -3.1006   -3.0852    3.2129 H   0  0  0  0  0  0  0  0  0  0  0  0
   -1.9194   -3.3664    4.5114 H   0  0  0  0  0  0  0  0  0  0  0  0
   -4.6097   -0.1925    3.7412 H   0  0  0  0  0  0  0  0  0  0  0  0
   -5.9262    0.9810    2.0396 H   0  0  0  0  0  0  0  0  0  0  0  0
   -5.8105    2.5051    0.0793 H   0  0  0  0  0  0  0  0  0  0  0  0
   -4.3448    2.5334   -0.9206 H   0  0  0  0  0  0  0  0  0  0  0  0
   -7.1563    2.3233   -1.7254 H   0  0  0  0  0  0  0  0  0  0  0  0
   -5.6480    2.4621   -2.7892 H   0  0  0  0  0  0  0  0  0  0  0  0
   -7.4862    1.4741   -4.1044 H   0  0  0  0  0  0  0  0  0  0  0  0
   -6.3871    0.0709   -3.6730 H   0  0  0  0  0  0  0  0  0  0  0  0
   -8.5631   -0.7737   -0.9114 H   0  0  0  0  0  0  0  0  0  0  0  0
   -7.3037   -1.4641   -1.9513 H   0  0  0  0  0  0  0  0  0  0  0  0
   -7.2709    0.8010    0.0611 H   0  0  0  0  0  0  0  0  0  0  0  0
   -6.1830   -0.6117   -0.0512 H   0  0  0  0  0  0  0  0  0  0  0  0
   -2.5329    1.1673   -0.4656 H   0  0  0  0  0  0  0  0  0  0  0  0
   -0.3869   -0.6528    2.1198 H   0  0  0  0  0  0  0  0  0  0  0  0
    0.2140    1.4638   -2.8358 H   0  0  0  0  0  0  0  0  0  0  0  0
    4.2183   -0.3254   -1.3872 H   0  0  0  0  0  0  0  0  0  0  0  0
    2.4831   -1.6872    1.6751 H   0  0  0  0  0  0  0  0  0  0  0  0
    3.6732   -2.8864    3.3815 H   0  0  0  0  0  0  0  0  0  0  0  0
    6.1255   -3.1796    3.2659 H   0  0  0  0  0  0  0  0  0  0  0  0
    7.3907   -2.2285    1.3886 H   0  0  0  0  0  0  0  0  0  0  0  0
    5.5595    1.5008   -1.0516 H   0  0  0  0  0  0  0  0  0  0  0  0
    6.4138    1.7720    1.1093 H   0  0  0  0  0  0  0  0  0  0  0  0
    8.0149    1.0065    0.6227 H   0  0  0  0  0  0  0  0  0  0  0  0
    7.6008    2.6450    0.0483 H   0  0  0  0  0  0  0  0  0  0  0  0
    6.8641    2.1465   -2.7801 H   0  0  0  0  0  0  0  0  0  0  0  0
    8.3340    2.0403   -1.7613 H   0  0  0  0  0  0  0  0  0  0  0  0
    7.7727    0.6247   -2.6878 H   0  0  0  0  0  0  0  0  0  0  0  0
  1  2  1  0
  2  3  1  0
  3  4  2  0
  4  5  1  0
  5  6  2  0
  6  7  1  0
  7  8  1  0
  8  9  1  0
  9 10  1  0
 10 11  1  0
 11 12  1  0
 12 13  1  0
  6 14  1  0
 14 15  2  0
 15 16  1  0
 16 17  1  0
 17 18  2  0
 18 19  1  0
 19 20  2  0
 20 21  1  0
 20 22  1  0
 22 23  1  0
 23 24  1  0
 24 25  2  0
 25 26  1  0
 26 27  2  0
 27 28  1  0
 28 29  2  0
 29 30  1  0
 30 31  2  0
 30 32  2  0
 30 33  1  0
 33 34  1  0
 33 35  1  0
 22 36  2  0
 15  3  1  0
 36 17  1  0
 13  8  1  0
 29 24  1  0
  1 37  1  0
  1 38  1  0
  1 39  1  0
  4 40  1  0
  5 41  1  0
  7 42  1  0
  7 43  1  0
  9 44  1  0
  9 45  1  0
 10 46  1  0
 10 47  1  0
 12 48  1  0
 12 49  1  0
 13 50  1  0
 13 51  1  0
 14 52  1  0
 16 53  1  0
 19 54  1  0
 23 55  1  0
 25 56  1  0
 26 57  1  0
 27 58  1  0
 28 59  1  0
 33 60  1  0
 34 61  1  0
 34 62  1  0
 34 63  1  0
 35 64  1  0
 35 65  1  0
 35 66  1  0
M  END
$$$$
[H]c1c(N([H])c2c([H])c(C(=O)N([H])c3c([H])c([H])c(C([H])([H])N4C([H])([H])C([H])([H])N(C([H])([H])[H])C([H])([H])C4([H])[H])c(C(F)(F)F)c3[H])c([H])c([H])c2C([H])([H])[H])nc(C([H])([H])[H])nc1C([H])([H])[H]
     RDKit          3D

 68 71  0  0  0  0  0  0  0  0999 V2000
   -7.2480    3.9107    0.5734 C   0  0  0  0  0  0  0  0  0  0  0  0
   -7.4402    2.5078    0.3090 N   0  0  0  0  0  0  0  0  0  0  0  0
   -6.6339    1.6655    1.1751 C   0  0  0  0  0  0  0  0  0  0  0  0
   -5.3471    1.2513    0.4868 C   0  0  0  0  0  0  0  0  0  0  0  0
   -5.5555    0.4889   -0.7023 N   0  0  0  0  0  0  0  0  0  0  0  0
   -5.2363   -0.9161   -0.5986 C   0  0  0  0  0  0  0  0  0  0  0  0
   -3.8295   -1.2357   -0.4199 C   0  0  0  0  0  0  0  0  0  0  0  0
   -2.8380   -0.2813   -0.4300 C   0  0  0  0  0  0  0  0  0  0  0  0
   -1.4822   -0.5814   -0.2956 C   0  0  0  0  0  0  0  0  0  0  0  0
   -1.1190   -1.8767   -0.1476 C   0  0  0  0  0  0  0  0  0  0  0  0
    0.2271   -2.2785    0.0157 N   0  0  0  0  0  0  0  0  0  0  0  0
    1.2498   -1.4164    0.4035 C   0  0  0  0  0  0  0  0  0  0  0  0
    1.1478   -0.2006    0.6630 O   0  0  0  0  0  0  0  0  0  0  0  0
    2.6243   -1.9611    0.5335 C   0  0  0  0  0  0  0  0  0  0  0  0
    2.8406   -3.2893    0.7574 C   0  0  0  0  0  0  0  0  0  0  0  0
    4.1319   -3.7702    0.8640 C   0  0  0  0  0  0  0  0  0  0  0  0
    5.1721   -2.9034    0.7430 C   0  0  0  0  0  0  0  0  0  0  0  0
    6.5514   -3.4726    0.8661 C   0  0  0  0  0  0  0  0  0  0  0  0
    5.0171   -1.5145    0.5106 C   0  0  0  0  0  0  0  0  0  0  0  0
    6.1744   -0.7223    0.4040 N   0  0  0  0  0  0  0  0  0  0  0  0
    6.2126    0.6527    0.1807 C   0  0  0  0  0  0  0  0  0  0  0  0
    7.5009    1.2314    0.1126 C   0  0  0  0  0  0  0  0  0  0  0  0
    7.6201    2.5820   -0.1050 C   0  0  0  0  0  0  0  0  0  0  0  0
    8.9783    3.2269   -0.1823 C   0  0  0  0  0  0  0  0  0  0  0  0
    6.5305    3.3381   -0.2503 N   0  0  0  0  0  0  0  0  0  0  0  0
    5.2911    2.8010   -0.1879 C   0  0  0  0  0  0  0  0  0  0  0  0
    4.0970    3.6885   -0.3568 C   0  0  0  0  0  0  0  0  0  0  0  0
    5.2042    1.4977    0.0226 N   0  0  0  0  0  0  0  0  0  0  0  0
    3.7191   -1.0891    0.4129 C   0  0  0  0  0  0  0  0  0  0  0  0
   -2.1228   -2.8591   -0.1368 C   0  0  0  0  0  0  0  0  0  0  0  0
   -3.4548   -2.5663   -0.2684 C   0  0  0  0  0  0  0  0  0  0  0  0
   -4.4410   -3.6471   -0.2339 C   0  0  0  0  0  0  0  0  0  0  0  0
   -3.7716   -4.8833   -0.1062 F   0  0  0  0  0  0  0  0  0  0  0  0
   -5.2220   -3.7704   -1.3445 F   0  0  0  0  0  0  0  0  0  0  0  0
   -5.1656   -3.5521    0.9496 F   0  0  0  0  0  0  0  0  0  0  0  0
   -6.9047    0.6985   -1.1724 C   0  0  0  0  0  0  0  0  0  0  0  0
   -7.1978    2.1867   -1.0901 C   0  0  0  0  0  0  0  0  0  0  0  0
   -6.2333    4.1696    0.9063 H   0  0  0  0  0  0  0  0  0  0  0  0
   -8.0166    4.2992    1.2465 H   0  0  0  0  0  0  0  0  0  0  0  0
   -7.3995    4.4356   -0.4136 H   0  0  0  0  0  0  0  0  0  0  0  0
   -6.4060    2.2244    2.0820 H   0  0  0  0  0  0  0  0  0  0  0  0
   -7.2293    0.7788    1.4235 H   0  0  0  0  0  0  0  0  0  0  0  0
   -4.7538    0.6369    1.1944 H   0  0  0  0  0  0  0  0  0  0  0  0
   -4.7748    2.1886    0.3201 H   0  0  0  0  0  0  0  0  0  0  0  0
   -5.9264   -1.4150    0.1248 H   0  0  0  0  0  0  0  0  0  0  0  0
   -5.5290   -1.3393   -1.6137 H   0  0  0  0  0  0  0  0  0  0  0  0
   -3.0880    0.7574   -0.5618 H   0  0  0  0  0  0  0  0  0  0  0  0
   -0.8155    0.2517   -0.3345 H   0  0  0  0  0  0  0  0  0  0  0  0
    0.4812   -3.3020   -0.1753 H   0  0  0  0  0  0  0  0  0  0  0  0
    2.0189   -3.9726    0.8591 H   0  0  0  0  0  0  0  0  0  0  0  0
    4.2492   -4.8320    1.0416 H   0  0  0  0  0  0  0  0  0  0  0  0
    7.1253   -3.2727   -0.0661 H   0  0  0  0  0  0  0  0  0  0  0  0
    7.0357   -2.8936    1.6886 H   0  0  0  0  0  0  0  0  0  0  0  0
    6.4849   -4.5295    1.1355 H   0  0  0  0  0  0  0  0  0  0  0  0
    7.0923   -1.2371    0.5053 H   0  0  0  0  0  0  0  0  0  0  0  0
    8.3949    0.6356    0.2278 H   0  0  0  0  0  0  0  0  0  0  0  0
    9.0395    3.6605   -1.1994 H   0  0  0  0  0  0  0  0  0  0  0  0
    9.0901    3.9988    0.6099 H   0  0  0  0  0  0  0  0  0  0  0  0
    9.7413    2.4363   -0.0712 H   0  0  0  0  0  0  0  0  0  0  0  0
    3.7761    3.9557    0.6841 H   0  0  0  0  0  0  0  0  0  0  0  0
    4.3395    4.5823   -0.9321 H   0  0  0  0  0  0  0  0  0  0  0  0
    3.2728    3.0825   -0.8130 H   0  0  0  0  0  0  0  0  0  0  0  0
    3.4850   -0.0713    0.2396 H   0  0  0  0  0  0  0  0  0  0  0  0
   -1.8267   -3.8876   -0.0195 H   0  0  0  0  0  0  0  0  0  0  0  0
   -7.6106    0.1676   -0.4874 H   0  0  0  0  0  0  0  0  0  0  0  0
   -7.0148    0.3329   -2.2070 H   0  0  0  0  0  0  0  0  0  0  0  0
   -8.0103    2.5058   -1.7461 H   0  0  0  0  0  0  0  0  0  0  0  0
   -6.2723    2.7120   -1.4039 H   0  0  0  0  0  0  0  0  0  0  0  0
  1  2  1  0
  2  3  1  0
  3  4  1  0
  4  5  1  0
  5  6  1  0
  6  7  1  0
  7  8  2  0
  8  9  1  0
  9 10  2  0
 10 11  1  0
 11 12  1  0
 12 13  2  0
 12 14  1  0
 14 15  2  0
 15 16  1  0
 16 17  2  0
 17 18  1  0
 17 19  1  0
 19 20  1  0
 20 21  1  0
 21 22  2  0
 22 23  1  0
 23 24  1  0
 23 25  2  0
 25 26  1  0
 26 27  1  0
 26 28  2  0
 19 29  2  0
 10 30  1  0
 30 31  2  0
 31 32  1  0
 32 33  1  0
 32 34  1  0
 32 35  1  0
  5 36  1  0
 36 37  1  0
 37  2  1  0
 31  7  1  0
 29 14  1  0
 28 21  1  0
  1 38  1  0
  1 39  1  0
  1 40  1  0
  3 41  1  0
  3 42  1  0
  4 43  1  0
  4 44  1  0
  6 45  1  0
  6 46  1  0
  8 47  1  0
  9 48  1  0
 11 49  1  0
 15 50  1  0
 16 51  1  0
 18 52  1  0
 18 53  1  0
 18 54  1  0
 20 55  1  0
 22 56  1  0
 24 57  1  0
 24 58  1  0
 24 59  1  0
 27 60  1  0
 27 61  1  0
 27 62  1  0
 29 63  1  0
 30 64  1  0
 36 65  1  0
 36 66  1  0
 37 67  1  0
 37 68  1  0
M  END
$$$$
[H]c1c([H])c([H])c2c(c1[H])c(N([H])C([H])([H])[H])c(-c1nc3c([H])c(N4C([H])([H])C([H])([H])OC([H])([H])C4([H])[H])c([H])c([H])c3n1[H])c(=O)n2[H]
     RDKit          3D

 49 53  0  0  0  0  0  0  0  0999 V2000
    2.1353    2.4679   -0.6022 C   0  0  0  0  0  0  0  0  0  0  0  0
    2.4439    1.4081    0.3483 N   0  0  0  0  0  0  0  0  0  0  0  0
    3.2110    0.2598    0.0096 C   0  0  0  0  0  0  0  0  0  0  0  0
    2.6020   -0.9182   -0.4251 C   0  0  0  0  0  0  0  0  0  0  0  0
    1.1445   -1.0107   -0.5088 C   0  0  0  0  0  0  0  0  0  0  0  0
    0.2586   -0.0494   -0.1592 N   0  0  0  0  0  0  0  0  0  0  0  0
   -1.0051   -0.4553   -0.3484 C   0  0  0  0  0  0  0  0  0  0  0  0
   -2.2381    0.1601   -0.1414 C   0  0  0  0  0  0  0  0  0  0  0  0
   -3.3995   -0.5206   -0.4347 C   0  0  0  0  0  0  0  0  0  0  0  0
   -3.2867   -1.8221   -0.9358 C   0  0  0  0  0  0  0  0  0  0  0  0
   -2.0585   -2.4083   -1.1314 C   0  0  0  0  0  0  0  0  0  0  0  0
   -0.8993   -1.7318   -0.8399 C   0  0  0  0  0  0  0  0  0  0  0  0
    0.4356   -2.0396   -0.9252 N   0  0  0  0  0  0  0  0  0  0  0  0
   -4.6797    0.0544   -0.2604 N   0  0  0  0  0  0  0  0  0  0  0  0
   -4.8417    1.4823   -0.1704 C   0  0  0  0  0  0  0  0  0  0  0  0
   -5.5032    1.7868    1.1725 C   0  0  0  0  0  0  0  0  0  0  0  0
   -6.7030    1.0507    1.2109 O   0  0  0  0  0  0  0  0  0  0  0  0
   -6.5045   -0.3069    1.2084 C   0  0  0  0  0  0  0  0  0  0  0  0
   -5.9028   -0.7275   -0.1431 C   0  0  0  0  0  0  0  0  0  0  0  0
    3.4588   -1.9460   -0.7367 C   0  0  0  0  0  0  0  0  0  0  0  0
    3.0145   -3.0550   -1.1400 O   0  0  0  0  0  0  0  0  0  0  0  0
    4.8087   -1.8563   -0.6395 N   0  0  0  0  0  0  0  0  0  0  0  0
    5.3757   -0.7318   -0.2246 C   0  0  0  0  0  0  0  0  0  0  0  0
    6.7607   -0.6666   -0.1338 C   0  0  0  0  0  0  0  0  0  0  0  0
    7.3584    0.4997    0.2969 C   0  0  0  0  0  0  0  0  0  0  0  0
    6.5704    1.5566    0.6217 C   0  0  0  0  0  0  0  0  0  0  0  0
    5.1996    1.5011    0.5349 C   0  0  0  0  0  0  0  0  0  0  0  0
    4.5922    0.3457    0.1074 C   0  0  0  0  0  0  0  0  0  0  0  0
    1.1516    2.9367   -0.3754 H   0  0  0  0  0  0  0  0  0  0  0  0
    2.1659    2.0279   -1.6190 H   0  0  0  0  0  0  0  0  0  0  0  0
    2.8844    3.2788   -0.5836 H   0  0  0  0  0  0  0  0  0  0  0  0
    2.0912    1.4871    1.3199 H   0  0  0  0  0  0  0  0  0  0  0  0
   -2.2336    1.1627    0.2535 H   0  0  0  0  0  0  0  0  0  0  0  0
   -4.1637   -2.4157   -1.1926 H   0  0  0  0  0  0  0  0  0  0  0  0
   -1.9896   -3.4241   -1.5228 H   0  0  0  0  0  0  0  0  0  0  0  0
    0.7038   -2.9829   -1.2847 H   0  0  0  0  0  0  0  0  0  0  0  0
   -3.9120    2.0139   -0.3062 H   0  0  0  0  0  0  0  0  0  0  0  0
   -5.6174    1.7473   -0.9359 H   0  0  0  0  0  0  0  0  0  0  0  0
   -4.8818    1.4639    2.0145 H   0  0  0  0  0  0  0  0  0  0  0  0
   -5.7665    2.8509    1.1646 H   0  0  0  0  0  0  0  0  0  0  0  0
   -7.4696   -0.7948    1.3936 H   0  0  0  0  0  0  0  0  0  0  0  0
   -5.8064   -0.6382    2.0067 H   0  0  0  0  0  0  0  0  0  0  0  0
   -5.7666   -1.8028   -0.1952 H   0  0  0  0  0  0  0  0  0  0  0  0
   -6.6171   -0.3751   -0.9124 H   0  0  0  0  0  0  0  0  0  0  0  0
    5.3853   -2.6818   -0.8953 H   0  0  0  0  0  0  0  0  0  0  0  0
    7.3566   -1.5217   -0.3986 H   0  0  0  0  0  0  0  0  0  0  0  0
    8.4383    0.4928    0.3479 H   0  0  0  0  0  0  0  0  0  0  0  0
    7.0772    2.4703    0.9610 H   0  0  0  0  0  0  0  0  0  0  0  0
    4.6225    2.3776    0.8079 H   0  0  0  0  0  0  0  0  0  0  0  0
  1  2  1  0
  2  3  1  0
  3  4  2  0
  4  5  1  0
  5  6  2  0
  6  7  1  0
  7  8  2  0
  8  9  1  0
  9 10  2  0
 10 11  1  0
 11 12  2  0
 12 13  1  0
  9 14  1  0
 14 15  1  0
 15 16  1  0
 16 17  1  0
 17 18  1  0
 18 19  1  0
  4 20  1  0
 20 21  2  0
 20 22  1  0
 22 23  1  0
 23 24  2  0
 24 25  1  0
 25 26  2  0
 26 27  1  0
 27 28  2  0
 28  3  1  0
 13  5  1  0
 19 14  1  0
 28 23  1  0
 12  7  1  0
  1 29  1  0
  1 30  1  0
  1 31  1  0
  2 32  1  0
  8 33  1  0
 10 34  1  0
 11 35  1  0
 13 36  1  0
 15 37  1  0
 15 38  1  0
 16 39  1  0
 16 40  1  0
 18 41  1  0
 18 42  1  0
 19 43  1  0
 19 44  1  0
 22 45  1  0
 24 46  1  0
 25 47  1  0
 26 48  1  0
 27 49  1  0
M  END
$$$$
[H]c1nn2c([H])c(-c3c([H])c([H])c(SC([H])([H])C([H])([H])N(C([H])([H])[H])C([H])([H])[H])c([H])c3[H])nc2c(N([H])[H])c1C(=O)N([H])[H]
     RDKit          3D

 45 47  0  0  0  0  0  0  0  0999 V2000
    8.3102    0.1147   -0.1737 C   0  0  0  0  0  0  0  0  0  0  0  0
    6.8410    0.0575   -0.3090 N   0  0  0  0  0  0  0  0  0  0  0  0
    6.5035   -1.3517   -0.3301 C   0  0  0  0  0  0  0  0  0  0  0  0
    6.2130    0.7061    0.7889 C   0  0  0  0  0  0  0  0  0  0  0  0
    4.7390    0.8401    0.6458 C   0  0  0  0  0  0  0  0  0  0  0  0
    3.8461   -0.6958    0.5341 S   0  0  0  0  0  0  0  0  0  0  0  0
    2.1073   -0.3973    0.3590 C   0  0  0  0  0  0  0  0  0  0  0  0
    1.2448   -1.4768    0.2537 C   0  0  0  0  0  0  0  0  0  0  0  0
   -0.1319   -1.3124    0.1125 C   0  0  0  0  0  0  0  0  0  0  0  0
   -0.6710   -0.0473    0.0742 C   0  0  0  0  0  0  0  0  0  0  0  0
    0.1868    1.0253    0.1790 C   0  0  0  0  0  0  0  0  0  0  0  0
    1.5539    0.8615    0.3192 C   0  0  0  0  0  0  0  0  0  0  0  0
   -2.1227    0.1434   -0.0759 C   0  0  0  0  0  0  0  0  0  0  0  0
   -2.7630    1.3638   -0.1218 C   0  0  0  0  0  0  0  0  0  0  0  0
   -4.1011    1.1432   -0.2668 N   0  0  0  0  0  0  0  0  0  0  0  0
   -5.1048    2.0066   -0.3573 N   0  0  0  0  0  0  0  0  0  0  0  0
   -6.3473    1.5133   -0.4972 C   0  0  0  0  0  0  0  0  0  0  0  0
   -6.6125    0.1563   -0.5494 C   0  0  0  0  0  0  0  0  0  0  0  0
   -7.9761   -0.2911   -0.7018 C   0  0  0  0  0  0  0  0  0  0  0  0
   -9.0479    0.6347   -0.7979 N   0  0  0  0  0  0  0  0  0  0  0  0
   -8.2602   -1.5149   -0.7545 O   0  0  0  0  0  0  0  0  0  0  0  0
   -5.5407   -0.7202   -0.4518 C   0  0  0  0  0  0  0  0  0  0  0  0
   -5.7766   -2.1133   -0.5015 N   0  0  0  0  0  0  0  0  0  0  0  0
   -4.2724   -0.1868   -0.3085 C   0  0  0  0  0  0  0  0  0  0  0  0
   -3.0684   -0.8039   -0.1925 N   0  0  0  0  0  0  0  0  0  0  0  0
    8.7131   -0.5894   -0.9297 H   0  0  0  0  0  0  0  0  0  0  0  0
    8.6940    1.1167   -0.3820 H   0  0  0  0  0  0  0  0  0  0  0  0
    8.6372   -0.2326    0.8118 H   0  0  0  0  0  0  0  0  0  0  0  0
    5.7309   -1.5195   -1.0932 H   0  0  0  0  0  0  0  0  0  0  0  0
    7.4158   -1.8881   -0.7210 H   0  0  0  0  0  0  0  0  0  0  0  0
    6.2699   -1.7326    0.6648 H   0  0  0  0  0  0  0  0  0  0  0  0
    6.6851    1.7372    0.8600 H   0  0  0  0  0  0  0  0  0  0  0  0
    6.4880    0.1976    1.7573 H   0  0  0  0  0  0  0  0  0  0  0  0
    4.3528    1.3738    1.5709 H   0  0  0  0  0  0  0  0  0  0  0  0
    4.4973    1.5289   -0.2087 H   0  0  0  0  0  0  0  0  0  0  0  0
    1.6547   -2.4710    0.2824 H   0  0  0  0  0  0  0  0  0  0  0  0
   -0.7866   -2.1505    0.0320 H   0  0  0  0  0  0  0  0  0  0  0  0
   -0.2533    2.0161    0.1472 H   0  0  0  0  0  0  0  0  0  0  0  0
    2.2346    1.7050    0.4019 H   0  0  0  0  0  0  0  0  0  0  0  0
   -2.2702    2.3283   -0.0529 H   0  0  0  0  0  0  0  0  0  0  0  0
   -7.1886    2.2202   -0.5733 H   0  0  0  0  0  0  0  0  0  0  0  0
   -9.7110    0.6037   -1.5971 H   0  0  0  0  0  0  0  0  0  0  0  0
   -9.1767    1.3660   -0.0494 H   0  0  0  0  0  0  0  0  0  0  0  0
   -6.0014   -2.5942    0.3867 H   0  0  0  0  0  0  0  0  0  0  0  0
   -5.7348   -2.6705   -1.3818 H   0  0  0  0  0  0  0  0  0  0  0  0
  1  2  1  0
  2  3  1  0
  2  4  1  0
  4  5  1  0
  5  6  1  0
  6  7  1  0
  7  8  2  0
  8  9  1  0
  9 10  2  0
 10 11  1  0
 11 12  2  0
 10 13  1  0
 13 14  2  0
 14 15  1  0
 15 16  1  0
 16 17  2  0
 17 18  1  0
 18 19  1  0
 19 20  1  0
 19 21  2  0
 18 22  2  0
 22 23  1  0
 22 24  1  0
 24 25  2  0
 12  7  1  0
 25 13  1  0
 24 15  1  0
  1 26  1  0
  1 27  1  0
  1 28  1  0
  3 29  1  0
  3 30  1  0
  3 31  1  0
  4 32  1  0
  4 33  1  0
  5 34  1  0
  5 35  1  0
  8 36  1  0
  9 37  1  0
 11 38  1  0
 12 39  1  0
 14 40  1  0
 17 41  1  0
 20 42  1  0
 20 43  1  0
 23 44  1  0
 23 45  1  0
M  END
$$$$
[H]c1nc([H])c([H])c(Oc2c([H])c([H])c([H])c(N([H])C(=O)N([H])c3c([H])c([H])c(-c4c([H])c([H])c([H])c5c4c(N([H])[H])nn5[H])c([H])c3[H])c2[H])c1[H]
     RDKit          3D

 53 57  0  0  0  0  0  0  0  0999 V2000
   -4.4462    2.4276    0.1944 N   0  0  0  0  0  0  0  0  0  0  0  0
   -5.7573    2.1335   -0.2416 C   0  0  0  0  0  0  0  0  0  0  0  0
   -6.7557    3.0089   -0.5180 N   0  0  0  0  0  0  0  0  0  0  0  0
   -7.8342    2.3640   -0.8721 N   0  0  0  0  0  0  0  0  0  0  0  0
   -7.6280    1.0339   -0.8553 C   0  0  0  0  0  0  0  0  0  0  0  0
   -8.4601   -0.0233   -1.1337 C   0  0  0  0  0  0  0  0  0  0  0  0
   -7.9275   -1.2973   -1.0005 C   0  0  0  0  0  0  0  0  0  0  0  0
   -6.6424   -1.5128   -0.6141 C   0  0  0  0  0  0  0  0  0  0  0  0
   -5.8303   -0.4120   -0.3418 C   0  0  0  0  0  0  0  0  0  0  0  0
   -4.4334   -0.6600    0.0191 C   0  0  0  0  0  0  0  0  0  0  0  0
   -3.3690   -0.2707   -0.7450 C   0  0  0  0  0  0  0  0  0  0  0  0
   -2.0660   -0.5299   -0.3463 C   0  0  0  0  0  0  0  0  0  0  0  0
   -1.7587   -1.1803    0.8163 C   0  0  0  0  0  0  0  0  0  0  0  0
   -0.4924   -1.4816    1.3233 N   0  0  0  0  0  0  0  0  0  0  0  0
    0.7711   -1.0441    0.8693 C   0  0  0  0  0  0  0  0  0  0  0  0
    0.8527   -0.2854   -0.1043 O   0  0  0  0  0  0  0  0  0  0  0  0
    1.9508   -1.4717    1.5266 N   0  0  0  0  0  0  0  0  0  0  0  0
    3.2816   -1.1347    1.2125 C   0  0  0  0  0  0  0  0  0  0  0  0
    4.2787   -1.8039    1.9437 C   0  0  0  0  0  0  0  0  0  0  0  0
    5.6152   -1.5573    1.7343 C   0  0  0  0  0  0  0  0  0  0  0  0
    6.0299   -0.6480    0.8032 C   0  0  0  0  0  0  0  0  0  0  0  0
    5.0721    0.0075    0.0879 C   0  0  0  0  0  0  0  0  0  0  0  0
    5.4610    0.9371   -0.8652 O   0  0  0  0  0  0  0  0  0  0  0  0
    6.7741    1.2350   -1.1288 C   0  0  0  0  0  0  0  0  0  0  0  0
    7.4321    0.4997   -2.0992 C   0  0  0  0  0  0  0  0  0  0  0  0
    8.7448    0.7896   -2.3702 C   0  0  0  0  0  0  0  0  0  0  0  0
    9.4323    1.7621   -1.7344 N   0  0  0  0  0  0  0  0  0  0  0  0
    8.8034    2.4737   -0.7986 C   0  0  0  0  0  0  0  0  0  0  0  0
    7.4757    2.2162   -0.4907 C   0  0  0  0  0  0  0  0  0  0  0  0
    3.7237   -0.2409    0.2988 C   0  0  0  0  0  0  0  0  0  0  0  0
   -2.8757   -1.5678    1.5792 C   0  0  0  0  0  0  0  0  0  0  0  0
   -4.1658   -1.3183    1.1972 C   0  0  0  0  0  0  0  0  0  0  0  0
   -6.2870    0.8825   -0.4494 C   0  0  0  0  0  0  0  0  0  0  0  0
   -4.0893    2.2422    1.1625 H   0  0  0  0  0  0  0  0  0  0  0  0
   -3.7863    2.8567   -0.4857 H   0  0  0  0  0  0  0  0  0  0  0  0
   -8.7504    2.8209   -1.1378 H   0  0  0  0  0  0  0  0  0  0  0  0
   -9.4718    0.0898   -1.4400 H   0  0  0  0  0  0  0  0  0  0  0  0
   -8.5960   -2.1412   -1.2233 H   0  0  0  0  0  0  0  0  0  0  0  0
   -6.2184   -2.4824   -0.5070 H   0  0  0  0  0  0  0  0  0  0  0  0
   -3.5085    0.2458   -1.6825 H   0  0  0  0  0  0  0  0  0  0  0  0
   -1.2477   -0.2085   -0.9894 H   0  0  0  0  0  0  0  0  0  0  0  0
   -0.4288   -2.1383    2.1752 H   0  0  0  0  0  0  0  0  0  0  0  0
    1.7759   -2.1309    2.3656 H   0  0  0  0  0  0  0  0  0  0  0  0
    4.0181   -2.5374    2.6967 H   0  0  0  0  0  0  0  0  0  0  0  0
    6.3923   -2.0735    2.2986 H   0  0  0  0  0  0  0  0  0  0  0  0
    7.0774   -0.4460    0.6300 H   0  0  0  0  0  0  0  0  0  0  0  0
    6.8956   -0.2791   -2.6142 H   0  0  0  0  0  0  0  0  0  0  0  0
    9.2761    0.2289   -3.1224 H   0  0  0  0  0  0  0  0  0  0  0  0
    9.3362    3.2514   -0.2830 H   0  0  0  0  0  0  0  0  0  0  0  0
    6.9696    2.8082    0.2807 H   0  0  0  0  0  0  0  0  0  0  0  0
    3.0450    0.3119   -0.2934 H   0  0  0  0  0  0  0  0  0  0  0  0
   -2.6936   -2.0891    2.5154 H   0  0  0  0  0  0  0  0  0  0  0  0
   -4.9647   -1.6609    1.8614 H   0  0  0  0  0  0  0  0  0  0  0  0
  1  2  1  0
  2  3  2  0
  3  4  1  0
  4  5  1  0
  5  6  2  0
  6  7  1  0
  7  8  2  0
  8  9  1  0
  9 10  1  0
 10 11  2  0
 11 12  1  0
 12 13  2  0
 13 14  1  0
 14 15  1  0
 15 16  2  0
 15 17  1  0
 17 18  1  0
 18 19  2  0
 19 20  1  0
 20 21  2  0
 21 22  1  0
 22 23  1  0
 23 24  1  0
 24 25  2  0
 25 26  1  0
 26 27  2  0
 27 28  1  0
 28 29  2  0
 22 30  2  0
 13 31  1  0
 31 32  2  0
  9 33  2  0
 33  2  1  0
 33  5  1  0
 32 10  1  0
 30 18  1  0
 29 24  1  0
  1 34  1  0
  1 35  1  0
  4 36  1  0
  6 37  1  0
  7 38  1  0
  8 39  1  0
 11 40  1  0
 12 41  1  0
 14 42  1  0
 17 43  1  0
 19 44  1  0
 20 45  1  0
 21 46  1  0
 25 47  1  0
 26 48  1  0
 28 49  1  0
 29 50  1  0
 30 51  1  0
 31 52  1  0
 32 53  1  0
M  END
$$$$
[H]c1nc(N(C([H])([H])[H])C([H])([H])c2nc(N([H])c3c([H])c(C([H])([H])[H])c([H])c(C([H])([H])[H])c3[H])nc([H])c2[H])c2c([H])c([H])sc2n1
     RDKit          3D

 47 50  0  0  0  0  0  0  0  0999 V2000
    2.4215    0.4589   -2.0303 C   0  0  0  0  0  0  0  0  0  0  0  0
    3.1772    0.0400   -0.8332 N   0  0  0  0  0  0  0  0  0  0  0  0
    2.9986   -1.3037   -0.4185 C   0  0  0  0  0  0  0  0  0  0  0  0
    1.5508   -1.6377   -0.1765 C   0  0  0  0  0  0  0  0  0  0  0  0
    1.1464   -2.9111    0.1478 C   0  0  0  0  0  0  0  0  0  0  0  0
   -0.1972   -3.1641    0.3632 C   0  0  0  0  0  0  0  0  0  0  0  0
   -1.0540   -2.1719    0.2507 N   0  0  0  0  0  0  0  0  0  0  0  0
   -0.6966   -0.9364   -0.0597 C   0  0  0  0  0  0  0  0  0  0  0  0
   -1.6065    0.1172   -0.1791 N   0  0  0  0  0  0  0  0  0  0  0  0
   -2.9930    0.1472   -0.0275 C   0  0  0  0  0  0  0  0  0  0  0  0
   -3.6188    1.4039    0.0523 C   0  0  0  0  0  0  0  0  0  0  0  0
   -4.9781    1.5289    0.1898 C   0  0  0  0  0  0  0  0  0  0  0  0
   -5.6541    2.8418    0.2754 C   0  0  0  0  0  0  0  0  0  0  0  0
   -5.7707    0.4014    0.2535 C   0  0  0  0  0  0  0  0  0  0  0  0
   -5.2138   -0.8553    0.1804 C   0  0  0  0  0  0  0  0  0  0  0  0
   -6.0433   -2.0950    0.2462 C   0  0  0  0  0  0  0  0  0  0  0  0
   -3.8370   -0.9351    0.0416 C   0  0  0  0  0  0  0  0  0  0  0  0
    0.6255   -0.6894   -0.2713 N   0  0  0  0  0  0  0  0  0  0  0  0
    3.9626    1.0535   -0.2359 C   0  0  0  0  0  0  0  0  0  0  0  0
    3.4301    2.2987   -0.0953 N   0  0  0  0  0  0  0  0  0  0  0  0
    4.0219    3.3283    0.4733 C   0  0  0  0  0  0  0  0  0  0  0  0
    5.2614    3.1440    0.9609 N   0  0  0  0  0  0  0  0  0  0  0  0
    5.8598    1.9102    0.8514 C   0  0  0  0  0  0  0  0  0  0  0  0
    7.3908    1.2948    1.3202 S   0  0  0  0  0  0  0  0  0  0  0  0
    7.2268   -0.3007    0.7596 C   0  0  0  0  0  0  0  0  0  0  0  0
    5.9698   -0.3125    0.2163 C   0  0  0  0  0  0  0  0  0  0  0  0
    5.2583    0.8301    0.2630 C   0  0  0  0  0  0  0  0  0  0  0  0
    1.6853    1.2055   -1.6724 H   0  0  0  0  0  0  0  0  0  0  0  0
    3.1105    0.9903   -2.7352 H   0  0  0  0  0  0  0  0  0  0  0  0
    1.8870   -0.3663   -2.5029 H   0  0  0  0  0  0  0  0  0  0  0  0
    3.3468   -2.0016   -1.1980 H   0  0  0  0  0  0  0  0  0  0  0  0
    3.4683   -1.4584    0.5805 H   0  0  0  0  0  0  0  0  0  0  0  0
    1.8544   -3.7209    0.2386 H   0  0  0  0  0  0  0  0  0  0  0  0
   -0.4708   -4.1826    0.6166 H   0  0  0  0  0  0  0  0  0  0  0  0
   -1.1586    1.0648   -0.4377 H   0  0  0  0  0  0  0  0  0  0  0  0
   -3.0331    2.3192    0.0074 H   0  0  0  0  0  0  0  0  0  0  0  0
   -5.8705    3.0390    1.3566 H   0  0  0  0  0  0  0  0  0  0  0  0
   -6.6016    2.7745   -0.3014 H   0  0  0  0  0  0  0  0  0  0  0  0
   -4.9683    3.6052   -0.1327 H   0  0  0  0  0  0  0  0  0  0  0  0
   -6.8518    0.5047    0.3630 H   0  0  0  0  0  0  0  0  0  0  0  0
   -5.3575   -2.9630    0.3350 H   0  0  0  0  0  0  0  0  0  0  0  0
   -6.7307   -2.1902   -0.6050 H   0  0  0  0  0  0  0  0  0  0  0  0
   -6.6106   -2.0594    1.2092 H   0  0  0  0  0  0  0  0  0  0  0  0
   -3.4291   -1.9204   -0.0220 H   0  0  0  0  0  0  0  0  0  0  0  0
    3.5295    4.2781    0.5429 H   0  0  0  0  0  0  0  0  0  0  0  0
    7.9421   -1.1399    0.8089 H   0  0  0  0  0  0  0  0  0  0  0  0
    5.6204   -1.2641   -0.2439 H   0  0  0  0  0  0  0  0  0  0  0  0
  1  2  1  0
  2  3  1  0
  3  4  1  0
  4  5  2  0
  5  6  1  0
  6  7  2  0
  7  8  1  0
  8  9  1  0
  9 10  1  0
 10 11  2  0
 11 12  1  0
 12 13  1  0
 12 14  2  0
 14 15  1  0
 15 16  1  0
 15 17  2  0
  8 18  2  0
  2 19  1  0
 19 20  2  0
 20 21  1  0
 21 22  2  0
 22 23  1  0
 23 24  1  0
 24 25  1  0
 25 26  2  0
 26 27  1  0
 18  4  1  0
 27 19  1  0
 17 10  1  0
 27 23  2  0
  1 28  1  0
  1 29  1  0
  1 30  1  0
  3 31  1  0
  3 32  1  0
  5 33  1  0
  6 34  1  0
  9 35  1  0
 11 36  1  0
 13 37  1  0
 13 38  1  0
 13 39  1  0
 14 40  1  0
 16 41  1  0
 16 42  1  0
 16 43  1  0
 17 44  1  0
 21 45  1  0
 25 46  1  0
 26 47  1  0
M  END
$$$$
[H]c1nc2c([H])c(OC([H])([H])C([H])([H])C([H])([H])N3C([H])([H])C([H])([H])N(C([H])([H])[H])C([H])([H])C3([H])[H])c(OC([H])([H])[H])c([H])c2c(Oc2c([H])c([H])c(N([H])C(=O)c3c([H])n(C([H])([H])C([H])([H])c4c([H])c([H])c(F)c([H])c4[H])c(=O)c4c([H])c(F)c([H])c([H])c34)c([H])c2F)c1[H]
     RDKit          3D

 95101  0  0  0  0  0  0  0  0999 V2000
    3.1073   -2.1214   -3.5056 C   0  0  0  0  0  0  0  0  0  0  0  0
    4.2624   -1.8186   -2.7983 O   0  0  0  0  0  0  0  0  0  0  0  0
    4.3005   -0.9946   -1.6884 C   0  0  0  0  0  0  0  0  0  0  0  0
    3.1797   -0.4204   -1.1789 C   0  0  0  0  0  0  0  0  0  0  0  0
    3.1892    0.4118   -0.0849 C   0  0  0  0  0  0  0  0  0  0  0  0
    1.9578    0.9223    0.3807 C   0  0  0  0  0  0  0  0  0  0  0  0
    0.8254    0.5580   -0.2527 O   0  0  0  0  0  0  0  0  0  0  0  0
   -0.4850    0.4954    0.0510 C   0  0  0  0  0  0  0  0  0  0  0  0
   -1.0049    0.7184    1.2974 C   0  0  0  0  0  0  0  0  0  0  0  0
   -2.3623    0.6419    1.5806 C   0  0  0  0  0  0  0  0  0  0  0  0
   -3.2054    0.3257    0.5479 C   0  0  0  0  0  0  0  0  0  0  0  0
   -4.5874    0.1875    0.7532 N   0  0  0  0  0  0  0  0  0  0  0  0
   -5.3876    0.7560    1.7521 C   0  0  0  0  0  0  0  0  0  0  0  0
   -4.9515    1.5375    2.6101 O   0  0  0  0  0  0  0  0  0  0  0  0
   -6.8148    0.4116    1.7902 C   0  0  0  0  0  0  0  0  0  0  0  0
   -7.7171    1.4000    1.5228 C   0  0  0  0  0  0  0  0  0  0  0  0
   -9.0409    1.1113    1.4848 N   0  0  0  0  0  0  0  0  0  0  0  0
   -9.9360    2.1811    1.1058 C   0  0  0  0  0  0  0  0  0  0  0  0
   -9.9626    2.3563   -0.4050 C   0  0  0  0  0  0  0  0  0  0  0  0
  -10.3851    1.1814   -1.1590 C   0  0  0  0  0  0  0  0  0  0  0  0
  -11.7074    1.0110   -1.4826 C   0  0  0  0  0  0  0  0  0  0  0  0
  -12.1844   -0.0506   -2.1891 C   0  0  0  0  0  0  0  0  0  0  0  0
  -11.2627   -1.0087   -2.5975 C   0  0  0  0  0  0  0  0  0  0  0  0
  -11.6838   -2.0890   -3.3111 F   0  0  0  0  0  0  0  0  0  0  0  0
   -9.9477   -0.8770   -2.2983 C   0  0  0  0  0  0  0  0  0  0  0  0
   -9.4924    0.2170   -1.5775 C   0  0  0  0  0  0  0  0  0  0  0  0
   -9.4706   -0.1256    1.7118 C   0  0  0  0  0  0  0  0  0  0  0  0
  -10.7129   -0.4332    1.6922 O   0  0  0  0  0  0  0  0  0  0  0  0
   -8.6150   -1.1874    1.9939 C   0  0  0  0  0  0  0  0  0  0  0  0
   -9.0850   -2.4515    2.2464 C   0  0  0  0  0  0  0  0  0  0  0  0
   -8.1675   -3.4292    2.5374 C   0  0  0  0  0  0  0  0  0  0  0  0
   -8.5750   -4.7162    2.8112 F   0  0  0  0  0  0  0  0  0  0  0  0
   -6.8157   -3.1653    2.5783 C   0  0  0  0  0  0  0  0  0  0  0  0
   -6.3803   -1.8821    2.3192 C   0  0  0  0  0  0  0  0  0  0  0  0
   -7.2495   -0.8605    2.0222 C   0  0  0  0  0  0  0  0  0  0  0  0
   -2.7005    0.0958   -0.7247 C   0  0  0  0  0  0  0  0  0  0  0  0
   -1.3727    0.1742   -0.9878 C   0  0  0  0  0  0  0  0  0  0  0  0
   -0.8900   -0.0726   -2.2412 F   0  0  0  0  0  0  0  0  0  0  0  0
    2.0868    1.7306    1.4831 C   0  0  0  0  0  0  0  0  0  0  0  0
    3.3034    1.9953    2.0640 C   0  0  0  0  0  0  0  0  0  0  0  0
    4.4327    1.4712    1.5820 N   0  0  0  0  0  0  0  0  0  0  0  0
    4.3940    0.6645    0.4979 C   0  0  0  0  0  0  0  0  0  0  0  0
    5.5530    0.0909    0.0027 C   0  0  0  0  0  0  0  0  0  0  0  0
    5.5916   -0.7492   -1.0759 C   0  0  0  0  0  0  0  0  0  0  0  0
    6.6039   -1.3598   -1.6206 O   0  0  0  0  0  0  0  0  0  0  0  0
    7.5998   -1.9581   -2.1533 C   0  0  0  0  0  0  0  0  0  0  0  0
    8.8314   -1.3722   -2.7042 C   0  0  0  0  0  0  0  0  0  0  0  0
    9.8891   -0.7794   -1.9263 C   0  0  0  0  0  0  0  0  0  0  0  0
    9.7072    0.3094   -1.0099 N   0  0  0  0  0  0  0  0  0  0  0  0
   11.1070    0.8002   -0.7841 C   0  0  0  0  0  0  0  0  0  0  0  0
   11.1591    1.8519    0.2585 C   0  0  0  0  0  0  0  0  0  0  0  0
   10.6314    1.3962    1.5355 N   0  0  0  0  0  0  0  0  0  0  0  0
   11.6037    0.7404    2.3563 C   0  0  0  0  0  0  0  0  0  0  0  0
    9.4130    0.6681    1.3877 C   0  0  0  0  0  0  0  0  0  0  0  0
    9.4626   -0.3512    0.3048 C   0  0  0  0  0  0  0  0  0  0  0  0
    2.5803   -3.0334   -3.2188 H   0  0  0  0  0  0  0  0  0  0  0  0
    2.3891   -1.2504   -3.5059 H   0  0  0  0  0  0  0  0  0  0  0  0
    3.3752   -2.2120   -4.6042 H   0  0  0  0  0  0  0  0  0  0  0  0
    2.1901   -0.5965   -1.6339 H   0  0  0  0  0  0  0  0  0  0  0  0
   -0.4039    0.9312    2.1850 H   0  0  0  0  0  0  0  0  0  0  0  0
   -2.7247    0.8010    2.5781 H   0  0  0  0  0  0  0  0  0  0  0  0
   -5.1094   -0.4219    0.0393 H   0  0  0  0  0  0  0  0  0  0  0  0
   -7.3829    2.4275    1.3445 H   0  0  0  0  0  0  0  0  0  0  0  0
   -9.5549    3.1124    1.5575 H   0  0  0  0  0  0  0  0  0  0  0  0
  -10.9607    1.9889    1.4995 H   0  0  0  0  0  0  0  0  0  0  0  0
  -10.6934    3.2063   -0.5703 H   0  0  0  0  0  0  0  0  0  0  0  0
   -8.9797    2.7644   -0.7591 H   0  0  0  0  0  0  0  0  0  0  0  0
  -12.4200    1.7636   -1.1632 H   0  0  0  0  0  0  0  0  0  0  0  0
  -13.2127   -0.1917   -2.4465 H   0  0  0  0  0  0  0  0  0  0  0  0
   -9.2070   -1.6085   -2.5982 H   0  0  0  0  0  0  0  0  0  0  0  0
   -8.4424    0.2891   -1.3626 H   0  0  0  0  0  0  0  0  0  0  0  0
  -10.1384   -2.6732    2.2222 H   0  0  0  0  0  0  0  0  0  0  0  0
   -6.1467   -3.9806    2.8094 H   0  0  0  0  0  0  0  0  0  0  0  0
   -5.2972   -1.6846    2.3569 H   0  0  0  0  0  0  0  0  0  0  0  0
   -3.3732   -0.1557   -1.5421 H   0  0  0  0  0  0  0  0  0  0  0  0
    1.2243    2.2239    1.9103 H   0  0  0  0  0  0  0  0  0  0  0  0
    3.3363    2.6476    2.9283 H   0  0  0  0  0  0  0  0  0  0  0  0
    6.4854    0.3141    0.4999 H   0  0  0  0  0  0  0  0  0  0  0  0
    7.1819   -2.6187   -3.0492 H   0  0  0  0  0  0  0  0  0  0  0  0
    7.9082   -2.8858   -1.4895 H   0  0  0  0  0  0  0  0  0  0  0  0
    9.3141   -2.1793   -3.3590 H   0  0  0  0  0  0  0  0  0  0  0  0
    8.4749   -0.6408   -3.5176 H   0  0  0  0  0  0  0  0  0  0  0  0
   10.7120   -0.4720   -2.6810 H   0  0  0  0  0  0  0  0  0  0  0  0
   10.4601   -1.6262   -1.3844 H   0  0  0  0  0  0  0  0  0  0  0  0
   11.4926    1.1878   -1.7348 H   0  0  0  0  0  0  0  0  0  0  0  0
   11.7101   -0.0475   -0.4677 H   0  0  0  0  0  0  0  0  0  0  0  0
   10.6608    2.8021    0.0192 H   0  0  0  0  0  0  0  0  0  0  0  0
   12.2462    2.0841    0.4329 H   0  0  0  0  0  0  0  0  0  0  0  0
   12.6504    1.0513    2.1536 H   0  0  0  0  0  0  0  0  0  0  0  0
   11.4229    0.9471    3.4431 H   0  0  0  0  0  0  0  0  0  0  0  0
   11.5230   -0.3589    2.2596 H   0  0  0  0  0  0  0  0  0  0  0  0
    9.2559    0.1048    2.3554 H   0  0  0  0  0  0  0  0  0  0  0  0
    8.5251    1.3231    1.2379 H   0  0  0  0  0  0  0  0  0  0  0  0
   10.3436   -1.0352    0.4253 H   0  0  0  0  0  0  0  0  0  0  0  0
    8.5467   -0.9309    0.3252 H   0  0  0  0  0  0  0  0  0  0  0  0
  1  2  1  0
  2  3  1  0
  3  4  2  0
  4  5  1  0
  5  6  2  0
  6  7  1  0
  7  8  1  0
  8  9  2  0
  9 10  1  0
 10 11  2  0
 11 12  1  0
 12 13  1  0
 13 14  2  0
 13 15  1  0
 15 16  2  0
 16 17  1  0
 17 18  1  0
 18 19  1  0
 19 20  1  0
 20 21  2  0
 21 22  1  0
 22 23  2  0
 23 24  1  0
 23 25  1  0
 25 26  2  0
 17 27  1  0
 27 28  2  0
 27 29  1  0
 29 30  2  0
 30 31  1  0
 31 32  1  0
 31 33  2  0
 33 34  1  0
 34 35  2  0
 11 36  1  0
 36 37  2  0
 37 38  1  0
  6 39  1  0
 39 40  2  0
 40 41  1  0
 41 42  2  0
 42 43  1  0
 43 44  2  0
 44 45  1  0
 45 46  1  0
 46 47  1  0
 47 48  1  0
 48 49  1  0
 49 50  1  0
 50 51  1  0
 51 52  1  0
 52 53  1  0
 52 54  1  0
 54 55  1  0
 44  3  1  0
 55 49  1  0
 42  5  1  0
 37  8  1  0
 35 15  1  0
 26 20  1  0
 35 29  1  0
  1 56  1  0
  1 57  1  0
  1 58  1  0
  4 59  1  0
  9 60  1  0
 10 61  1  0
 12 62  1  0
 16 63  1  0
 18 64  1  0
 18 65  1  0
 19 66  1  0
 19 67  1  0
 21 68  1  0
 22 69  1  0
 25 70  1  0
 26 71  1  0
 30 72  1  0
 33 73  1  0
 34 74  1  0
 36 75  1  0
 39 76  1  0
 40 77  1  0
 43 78  1  0
 46 79  1  0
 46 80  1  0
 47 81  1  0
 47 82  1  0
 48 83  1  0
 48 84  1  0
 50 85  1  0
 50 86  1  0
 51 87  1  0
 51 88  1  0
 53 89  1  0
 53 90  1  0
 53 91  1  0
 54 92  1  0
 54 93  1  0
 55 94  1  0
 55 95  1  0
M  END
$$$$
[H]c1nc2c([H])c(OC([H])([H])[H])c(OC([H])([H])[H])c([H])c2c(Oc2c([H])c([H])c(N([H])C(=O)N([H])c3c([H])c(C([H])([H])[H])c([H])c([H])c3F)c(C([H])([H])[H])c2[H])c1[H]
     RDKit          3D

 58 61  0  0  0  0  0  0  0  0999 V2000
   -9.2960   -1.1094   -1.7883 C   0  0  0  0  0  0  0  0  0  0  0  0
   -8.0601   -1.5774   -1.3797 O   0  0  0  0  0  0  0  0  0  0  0  0
   -7.0511   -0.8882   -0.8365 C   0  0  0  0  0  0  0  0  0  0  0  0
   -7.0295    0.4227   -0.5045 C   0  0  0  0  0  0  0  0  0  0  0  0
   -5.9681    1.0596    0.0265 C   0  0  0  0  0  0  0  0  0  0  0  0
   -5.9471    2.3745    0.2882 N   0  0  0  0  0  0  0  0  0  0  0  0
   -4.8970    3.0133    0.7544 C   0  0  0  0  0  0  0  0  0  0  0  0
   -3.7149    2.3402    1.0105 C   0  0  0  0  0  0  0  0  0  0  0  0
   -3.6358    1.0008    0.7777 C   0  0  0  0  0  0  0  0  0  0  0  0
   -2.6020    0.1942    0.9435 O   0  0  0  0  0  0  0  0  0  0  0  0
   -1.2938    0.3489    1.1833 C   0  0  0  0  0  0  0  0  0  0  0  0
   -0.5762    0.3763    2.3372 C   0  0  0  0  0  0  0  0  0  0  0  0
    0.8058    0.5417    2.3571 C   0  0  0  0  0  0  0  0  0  0  0  0
    1.5010    0.6835    1.1781 C   0  0  0  0  0  0  0  0  0  0  0  0
    2.8937    0.6259    1.0755 N   0  0  0  0  0  0  0  0  0  0  0  0
    4.2050    0.5758    0.9877 C   0  0  0  0  0  0  0  0  0  0  0  0
    5.0336    0.9956    1.8981 O   0  0  0  0  0  0  0  0  0  0  0  0
    4.8501    0.0166   -0.2039 N   0  0  0  0  0  0  0  0  0  0  0  0
    6.2278   -0.0527   -0.4018 C   0  0  0  0  0  0  0  0  0  0  0  0
    7.2342    0.3778    0.4215 C   0  0  0  0  0  0  0  0  0  0  0  0
    8.5955    0.2653    0.1125 C   0  0  0  0  0  0  0  0  0  0  0  0
    9.6480    0.6998    1.0631 C   0  0  0  0  0  0  0  0  0  0  0  0
    8.9731   -0.3087   -1.1007 C   0  0  0  0  0  0  0  0  0  0  0  0
    7.9722   -0.7243   -1.8976 C   0  0  0  0  0  0  0  0  0  0  0  0
    6.6494   -0.6515   -1.6570 C   0  0  0  0  0  0  0  0  0  0  0  0
    5.7021   -1.1145   -2.4719 F   0  0  0  0  0  0  0  0  0  0  0  0
    0.8048    0.6715   -0.0458 C   0  0  0  0  0  0  0  0  0  0  0  0
    1.5356    0.9292   -1.3042 C   0  0  0  0  0  0  0  0  0  0  0  0
   -0.5178    0.5083    0.0025 C   0  0  0  0  0  0  0  0  0  0  0  0
   -4.8037    0.3250    0.2661 C   0  0  0  0  0  0  0  0  0  0  0  0
   -4.8063   -0.9991   -0.0603 C   0  0  0  0  0  0  0  0  0  0  0  0
   -5.8583   -1.6658   -0.6056 C   0  0  0  0  0  0  0  0  0  0  0  0
   -5.9457   -2.9848   -1.0018 O   0  0  0  0  0  0  0  0  0  0  0  0
   -4.9272   -3.9389   -0.9875 C   0  0  0  0  0  0  0  0  0  0  0  0
  -10.0543   -1.0841   -0.9827 H   0  0  0  0  0  0  0  0  0  0  0  0
   -9.1960   -0.0777   -2.2418 H   0  0  0  0  0  0  0  0  0  0  0  0
   -9.6309   -1.7323   -2.6702 H   0  0  0  0  0  0  0  0  0  0  0  0
   -7.9398    1.0269   -0.6741 H   0  0  0  0  0  0  0  0  0  0  0  0
   -4.9063    4.0974    0.9551 H   0  0  0  0  0  0  0  0  0  0  0  0
   -2.8623    2.8953    1.4036 H   0  0  0  0  0  0  0  0  0  0  0  0
   -1.0892    0.2776    3.2636 H   0  0  0  0  0  0  0  0  0  0  0  0
    1.2811    0.5677    3.3144 H   0  0  0  0  0  0  0  0  0  0  0  0
    2.9730    1.4708    2.1375 H   0  0  0  0  0  0  0  0  0  0  0  0
    4.2158   -0.3620   -0.9295 H   0  0  0  0  0  0  0  0  0  0  0  0
    7.0458    0.8573    1.3778 H   0  0  0  0  0  0  0  0  0  0  0  0
    9.2743    0.8605    2.0738 H   0  0  0  0  0  0  0  0  0  0  0  0
   10.2577    1.5183    0.6311 H   0  0  0  0  0  0  0  0  0  0  0  0
   10.3596   -0.1995    1.1658 H   0  0  0  0  0  0  0  0  0  0  0  0
   10.0198   -0.3745   -1.3081 H   0  0  0  0  0  0  0  0  0  0  0  0
    8.2635   -1.1844   -2.8741 H   0  0  0  0  0  0  0  0  0  0  0  0
    0.8069    1.1790   -2.1308 H   0  0  0  0  0  0  0  0  0  0  0  0
    2.3126    1.7032   -1.2399 H   0  0  0  0  0  0  0  0  0  0  0  0
    2.0343   -0.0359   -1.5721 H   0  0  0  0  0  0  0  0  0  0  0  0
   -1.0685    0.4923   -0.9496 H   0  0  0  0  0  0  0  0  0  0  0  0
   -3.8815   -1.5809    0.1405 H   0  0  0  0  0  0  0  0  0  0  0  0
   -5.3449   -4.9666   -1.2205 H   0  0  0  0  0  0  0  0  0  0  0  0
   -4.2016   -3.7477   -1.8413 H   0  0  0  0  0  0  0  0  0  0  0  0
   -4.3706   -3.9320   -0.0519 H   0  0  0  0  0  0  0  0  0  0  0  0
  1  2  1  0
  2  3  1  0
  3  4  2  0
  4  5  1  0
  5  6  2  0
  6  7  1  0
  7  8  2  0
  8  9  1  0
  9 10  1  0
 10 11  1  0
 11 12  2  0
 12 13  1  0
 13 14  2  0
 14 15  1  0
 15 16  1  0
 16 17  2  0
 16 18  1  0
 18 19  1  0
 19 20  2  0
 20 21  1  0
 21 22  1  0
 21 23  2  0
 23 24  1  0
 24 25  2  0
 25 26  1  0
 14 27  1  0
 27 28  1  0
 27 29  2  0
  9 30  2  0
 30 31  1  0
 31 32  2  0
 32 33  1  0
 33 34  1  0
 32  3  1  0
 30  5  1  0
 29 11  1  0
 25 19  1  0
  1 35  1  0
  1 36  1  0
  1 37  1  0
  4 38  1  0
  7 39  1  0
  8 40  1  0
 12 41  1  0
 13 42  1  0
 15 43  1  0
 18 44  1  0
 20 45  1  0
 22 46  1  0
 22 47  1  0
 22 48  1  0
 23 49  1  0
 24 50  1  0
 28 51  1  0
 28 52  1  0
 28 53  1  0
 29 54  1  0
 31 55  1  0
 34 56  1  0
 34 57  1  0
 34 58  1  0
M  END
$$$$
[H]c1nc(N([H])[H])c2c(-c3c([H])c([H])c(N([H])C(=O)[C@@]4([H])C([H])([H])[C@]4([H])C(F)(F)F)c([H])c3[H])c([H])sc2c1-c1nc([H])n(C([H])([H])[H])c1[H]
     RDKit          3D

 50 54  0  0  0  0  0  0  0  0999 V2000
   -8.9422   -1.5353    0.2464 C   0  0  0  0  0  0  0  0  0  0  0  0
   -7.9346   -0.5199    0.5187 N   0  0  0  0  0  0  0  0  0  0  0  0
   -8.1474    0.6734    1.0798 C   0  0  0  0  0  0  0  0  0  0  0  0
   -6.9809    1.3198    1.1626 N   0  0  0  0  0  0  0  0  0  0  0  0
   -5.9830    0.5440    0.6495 C   0  0  0  0  0  0  0  0  0  0  0  0
   -6.6188   -0.5956    0.2584 C   0  0  0  0  0  0  0  0  0  0  0  0
   -4.5748    0.9597    0.5899 C   0  0  0  0  0  0  0  0  0  0  0  0
   -4.2514    2.2277    1.0974 C   0  0  0  0  0  0  0  0  0  0  0  0
   -2.9704    2.5534    1.0191 N   0  0  0  0  0  0  0  0  0  0  0  0
   -1.9972    1.7941    0.5124 C   0  0  0  0  0  0  0  0  0  0  0  0
   -0.7048    2.3890    0.5167 N   0  0  0  0  0  0  0  0  0  0  0  0
   -2.2545    0.5163   -0.0094 C   0  0  0  0  0  0  0  0  0  0  0  0
   -1.4199   -0.3644   -0.5590 C   0  0  0  0  0  0  0  0  0  0  0  0
   -1.9678   -1.5587   -1.0119 C   0  0  0  0  0  0  0  0  0  0  0  0
   -3.6135   -1.3925   -0.6458 S   0  0  0  0  0  0  0  0  0  0  0  0
   -3.5845    0.1649    0.0646 C   0  0  0  0  0  0  0  0  0  0  0  0
    0.0375   -0.2558   -0.6968 C   0  0  0  0  0  0  0  0  0  0  0  0
    0.8161   -0.2394    0.4247 C   0  0  0  0  0  0  0  0  0  0  0  0
    2.2050   -0.1360    0.4009 C   0  0  0  0  0  0  0  0  0  0  0  0
    2.8570   -0.0450   -0.7859 C   0  0  0  0  0  0  0  0  0  0  0  0
    4.2599    0.0463   -0.8991 N   0  0  0  0  0  0  0  0  0  0  0  0
    5.2222   -0.1612    0.0767 C   0  0  0  0  0  0  0  0  0  0  0  0
    4.9487   -0.4770    1.2443 O   0  0  0  0  0  0  0  0  0  0  0  0
    6.6793    0.0008   -0.2817 C   0  0  1  0  0  0  0  0  0  0  0  0
    7.5885    0.5878    0.7352 C   0  0  0  0  0  0  0  0  0  0  0  0
    7.6768   -0.8687    0.4109 C   0  0  2  0  0  0  0  0  0  0  0  0
    8.8379   -1.3158   -0.4483 C   0  0  0  0  0  0  0  0  0  0  0  0
    9.5369   -0.2087   -0.9123 F   0  0  0  0  0  0  0  0  0  0  0  0
    9.6960   -2.1566    0.2003 F   0  0  0  0  0  0  0  0  0  0  0  0
    8.3293   -1.9709   -1.5572 F   0  0  0  0  0  0  0  0  0  0  0  0
    2.0694   -0.0604   -1.9515 C   0  0  0  0  0  0  0  0  0  0  0  0
    0.6923   -0.1635   -1.9019 C   0  0  0  0  0  0  0  0  0  0  0  0
   -9.2343   -1.4389   -0.8260 H   0  0  0  0  0  0  0  0  0  0  0  0
   -9.7835   -1.4215    0.9304 H   0  0  0  0  0  0  0  0  0  0  0  0
   -8.4997   -2.5298    0.3857 H   0  0  0  0  0  0  0  0  0  0  0  0
   -9.1389    1.0264    1.4061 H   0  0  0  0  0  0  0  0  0  0  0  0
   -6.1477   -1.4476   -0.1970 H   0  0  0  0  0  0  0  0  0  0  0  0
   -5.0214    2.8620    1.5136 H   0  0  0  0  0  0  0  0  0  0  0  0
   -0.2631    2.5583    1.4464 H   0  0  0  0  0  0  0  0  0  0  0  0
   -0.1819    2.6611   -0.3374 H   0  0  0  0  0  0  0  0  0  0  0  0
   -1.4844   -2.4152   -1.4913 H   0  0  0  0  0  0  0  0  0  0  0  0
    0.3375   -0.3143    1.4160 H   0  0  0  0  0  0  0  0  0  0  0  0
    2.6982   -0.1261    1.3649 H   0  0  0  0  0  0  0  0  0  0  0  0
    4.6150    0.3165   -1.8681 H   0  0  0  0  0  0  0  0  0  0  0  0
    6.8565    0.2788   -1.3211 H   0  0  0  0  0  0  0  0  0  0  0  0
    7.1981    0.8089    1.7683 H   0  0  0  0  0  0  0  0  0  0  0  0
    8.4541    1.1996    0.4221 H   0  0  0  0  0  0  0  0  0  0  0  0
    7.3668   -1.6100    1.1682 H   0  0  0  0  0  0  0  0  0  0  0  0
    2.6067    0.0120   -2.8862 H   0  0  0  0  0  0  0  0  0  0  0  0
    0.1148   -0.1722   -2.8269 H   0  0  0  0  0  0  0  0  0  0  0  0
  1  2  1  0
  2  3  1  0
  3  4  2  0
  4  5  1  0
  5  6  2  0
  5  7  1  0
  7  8  2  0
  8  9  1  0
  9 10  2  0
 10 11  1  0
 10 12  1  0
 12 13  1  0
 13 14  2  0
 14 15  1  0
 15 16  1  0
 13 17  1  0
 17 18  2  0
 18 19  1  0
 19 20  2  0
 20 21  1  0
 21 22  1  0
 22 23  2  0
 22 24  1  0
 24 25  1  0
 25 26  1  0
 26 27  1  0
 27 28  1  0
 27 29  1  0
 27 30  1  0
 20 31  1  0
 31 32  2  0
  6  2  1  0
 16  7  1  0
 32 17  1  0
 16 12  2  0
 26 24  1  0
  1 33  1  0
  1 34  1  0
  1 35  1  0
  3 36  1  0
  6 37  1  0
  8 38  1  0
 11 39  1  0
 11 40  1  0
 14 41  1  0
 18 42  1  0
 19 43  1  0
 21 44  1  0
 24 45  1  6
 25 46  1  0
 25 47  1  0
 26 48  1  1
 31 49  1  0
 32 50  1  0
M  END
$$$$
[H]c1c([H])c([H])c2c(c1[H])c1c3c(c4c5c([H])c([H])c([H])c([H])c5n5c4c1n2C1([H])O[C@@]5(C([H])([H])[H])[C@]([H])(OC([H])([H])[H])[C@]([H])(N([H])C([H])([H])[H])C1([H])[H])C([H])([H])N([H])C3=O
     RDKit          3D

 61 68  0  0  0  0  0  0  0  0999 V2000
   -3.5629   -2.3714    1.6152 C   0  0  0  0  0  0  0  0  0  0  0  0
   -3.1396   -1.0595    1.2056 N   0  0  0  0  0  0  0  0  0  0  0  0
   -2.8076   -1.0224   -0.2351 C   0  0  2  0  0  0  0  0  0  0  0  0
   -1.6773   -1.9365   -0.4513 C   0  0  0  0  0  0  0  0  0  0  0  0
   -0.7677   -1.5182   -1.5686 C   0  0  0  0  0  0  0  0  0  0  0  0
   -0.9038   -0.3292   -2.0847 O   0  0  0  0  0  0  0  0  0  0  0  0
   -1.3936    0.7614   -1.3814 C   0  0  1  0  0  0  0  0  0  0  0  0
   -1.7100    1.7309   -2.5420 C   0  0  0  0  0  0  0  0  0  0  0  0
   -2.6358    0.3964   -0.7147 C   0  0  2  0  0  0  0  0  0  0  0  0
   -3.0629    1.1796    0.3486 O   0  0  0  0  0  0  0  0  0  0  0  0
   -4.3099    1.7627    0.1433 C   0  0  0  0  0  0  0  0  0  0  0  0
   -0.3125    1.3098   -0.5645 N   0  0  0  0  0  0  0  0  0  0  0  0
   -0.1806    2.5601   -0.1074 C   0  0  0  0  0  0  0  0  0  0  0  0
   -0.9672    3.6618   -0.1931 C   0  0  0  0  0  0  0  0  0  0  0  0
   -0.6027    4.8625    0.3735 C   0  0  0  0  0  0  0  0  0  0  0  0
    0.5973    5.0088    1.0667 C   0  0  0  0  0  0  0  0  0  0  0  0
    1.3975    3.8931    1.1556 C   0  0  0  0  0  0  0  0  0  0  0  0
    1.0186    2.7048    0.5850 C   0  0  0  0  0  0  0  0  0  0  0  0
    1.6312    1.4891    0.5421 C   0  0  0  0  0  0  0  0  0  0  0  0
    2.8523    1.0149    1.0364 C   0  0  0  0  0  0  0  0  0  0  0  0
    3.8949    1.7270    1.8147 C   0  0  0  0  0  0  0  0  0  0  0  0
    4.9399    0.7979    2.0710 N   0  0  0  0  0  0  0  0  0  0  0  0
    4.5686   -0.4517    1.4778 C   0  0  0  0  0  0  0  0  0  0  0  0
    5.3153   -1.4363    1.5596 O   0  0  0  0  0  0  0  0  0  0  0  0
    3.2722   -0.2937    0.8429 C   0  0  0  0  0  0  0  0  0  0  0  0
    2.4330   -1.1272    0.1374 C   0  0  0  0  0  0  0  0  0  0  0  0
    2.4790   -2.4409   -0.2391 C   0  0  0  0  0  0  0  0  0  0  0  0
    3.4159   -3.4238   -0.0540 C   0  0  0  0  0  0  0  0  0  0  0  0
    3.1740   -4.6949   -0.5674 C   0  0  0  0  0  0  0  0  0  0  0  0
    2.0071   -4.9543   -1.2509 C   0  0  0  0  0  0  0  0  0  0  0  0
    1.0540   -3.9579   -1.4403 C   0  0  0  0  0  0  0  0  0  0  0  0
    1.3076   -2.7178   -0.9303 C   0  0  0  0  0  0  0  0  0  0  0  0
    0.5730   -1.6276   -0.9793 N   0  0  0  0  0  0  0  0  0  0  0  0
    1.2104   -0.6426   -0.3533 C   0  0  0  0  0  0  0  0  0  0  0  0
    0.8101    0.6716   -0.1516 C   0  0  0  0  0  0  0  0  0  0  0  0
   -3.5833   -2.3414    2.7438 H   0  0  0  0  0  0  0  0  0  0  0  0
   -2.8352   -3.1650    1.3285 H   0  0  0  0  0  0  0  0  0  0  0  0
   -4.5467   -2.6640    1.2307 H   0  0  0  0  0  0  0  0  0  0  0  0
   -2.2889   -0.8047    1.7574 H   0  0  0  0  0  0  0  0  0  0  0  0
   -3.7214   -1.5209   -0.6901 H   0  0  0  0  0  0  0  0  0  0  0  0
   -1.1293   -2.0677    0.5302 H   0  0  0  0  0  0  0  0  0  0  0  0
   -2.0392   -2.9909   -0.6539 H   0  0  0  0  0  0  0  0  0  0  0  0
   -0.8410   -2.2945   -2.3858 H   0  0  0  0  0  0  0  0  0  0  0  0
   -2.7231    2.1691   -2.4397 H   0  0  0  0  0  0  0  0  0  0  0  0
   -0.9169    2.5159   -2.6094 H   0  0  0  0  0  0  0  0  0  0  0  0
   -1.7183    1.2455   -3.5348 H   0  0  0  0  0  0  0  0  0  0  0  0
   -3.4752    0.5154   -1.4808 H   0  0  0  0  0  0  0  0  0  0  0  0
   -4.6178    2.3777    1.0230 H   0  0  0  0  0  0  0  0  0  0  0  0
   -4.3226    2.4677   -0.7119 H   0  0  0  0  0  0  0  0  0  0  0  0
   -5.1049    1.0109   -0.0327 H   0  0  0  0  0  0  0  0  0  0  0  0
   -1.8874    3.5945   -0.7062 H   0  0  0  0  0  0  0  0  0  0  0  0
   -1.2336    5.7169    0.2959 H   0  0  0  0  0  0  0  0  0  0  0  0
    0.8847    5.9552    1.5129 H   0  0  0  0  0  0  0  0  0  0  0  0
    2.3494    3.9840    1.6980 H   0  0  0  0  0  0  0  0  0  0  0  0
    4.3147    2.5577    1.1784 H   0  0  0  0  0  0  0  0  0  0  0  0
    3.4970    2.1160    2.7794 H   0  0  0  0  0  0  0  0  0  0  0  0
    5.8250    1.0065    2.6048 H   0  0  0  0  0  0  0  0  0  0  0  0
    4.3272   -3.3128    0.4510 H   0  0  0  0  0  0  0  0  0  0  0  0
    3.9089   -5.5018   -0.4324 H   0  0  0  0  0  0  0  0  0  0  0  0
    1.8255   -5.9467   -1.6475 H   0  0  0  0  0  0  0  0  0  0  0  0
    0.1345   -4.1490   -1.9752 H   0  0  0  0  0  0  0  0  0  0  0  0
  1  2  1  0
  2  3  1  0
  3  4  1  0
  4  5  1  0
  5  6  1  0
  6  7  1  0
  7  8  1  6
  7  9  1  0
  9 10  1  0
 10 11  1  0
  7 12  1  0
 12 13  1  0
 13 14  2  0
 14 15  1  0
 15 16  2  0
 16 17  1  0
 17 18  2  0
 18 19  1  0
 19 20  2  0
 20 21  1  0
 21 22  1  0
 22 23  1  0
 23 24  2  0
 23 25  1  0
 25 26  2  0
 26 27  1  0
 27 28  2  0
 28 29  1  0
 29 30  2  0
 30 31  1  0
 31 32  2  0
 32 33  1  0
 33 34  1  0
 34 35  2  0
  9  3  1  0
 35 12  1  0
 33  5  1  0
 18 13  1  0
 35 19  1  0
 25 20  1  0
 34 26  1  0
 32 27  1  0
  1 36  1  0
  1 37  1  0
  1 38  1  0
  2 39  1  0
  3 40  1  6
  4 41  1  0
  4 42  1  0
  5 43  1  0
  8 44  1  0
  8 45  1  0
  8 46  1  0
  9 47  1  6
 11 48  1  0
 11 49  1  0
 11 50  1  0
 14 51  1  0
 15 52  1  0
 16 53  1  0
 17 54  1  0
 21 55  1  0
 21 56  1  0
 22 57  1  0
 28 58  1  0
 29 59  1  0
 30 60  1  0
 31 61  1  0
M  END
$$$$
[H]c1nc(N([H])c2c([H])c(C(=O)N([H])OC([H])([H])[H])c([H])c(C(F)(F)F)c2[H])nc(-c2c([H])c([H])c(N([H])C(=O)C3(C(=O)N([H])C4([H])C([H])([H])C([H])([H])OC([H])([H])C4([H])[H])C([H])([H])C3([H])[H])c([H])c2[H])c1[H]
     RDKit          3D

 72 76  0  0  0  0  0  0  0  0999 V2000
   11.4057   -0.9841   -1.7800 C   0  0  0  0  0  0  0  0  0  0  0  0
   11.5542   -1.6103   -0.4942 O   0  0  0  0  0  0  0  0  0  0  0  0
   10.3799   -1.6233    0.0599 N   0  0  0  0  0  0  0  0  0  0  0  0
    9.1951   -1.6559    0.6421 C   0  0  0  0  0  0  0  0  0  0  0  0
    8.6395   -2.1916    1.5814 O   0  0  0  0  0  0  0  0  0  0  0  0
    8.2379   -0.6758   -0.0837 C   0  0  0  0  0  0  0  0  0  0  0  0
    7.1766   -1.0803   -0.7602 C   0  0  0  0  0  0  0  0  0  0  0  0
    6.3944   -0.0984   -1.3965 C   0  0  0  0  0  0  0  0  0  0  0  0
    5.0619   -0.4692   -1.7179 N   0  0  0  0  0  0  0  0  0  0  0  0
    4.1679    0.0516   -0.6898 C   0  0  0  0  0  0  0  0  0  0  0  0
    4.7442    0.8782    0.2620 N   0  0  0  0  0  0  0  0  0  0  0  0
    3.8957    1.3518    1.2869 C   0  0  0  0  0  0  0  0  0  0  0  0
    2.6361    1.0267    1.3007 C   0  0  0  0  0  0  0  0  0  0  0  0
    2.0598    0.1735    0.3350 C   0  0  0  0  0  0  0  0  0  0  0  0
    2.9173   -0.2789   -0.6224 N   0  0  0  0  0  0  0  0  0  0  0  0
    0.7163   -0.2677    0.5226 C   0  0  0  0  0  0  0  0  0  0  0  0
   -0.0755   -0.7217   -0.5232 C   0  0  0  0  0  0  0  0  0  0  0  0
   -1.3595   -1.1794   -0.2426 C   0  0  0  0  0  0  0  0  0  0  0  0
   -1.7851   -1.1895    1.0760 C   0  0  0  0  0  0  0  0  0  0  0  0
   -3.2240   -1.2064    1.2308 N   0  0  0  0  0  0  0  0  0  0  0  0
   -4.1158   -1.7177    0.3145 C   0  0  0  0  0  0  0  0  0  0  0  0
   -4.0571   -2.4873   -0.5997 O   0  0  0  0  0  0  0  0  0  0  0  0
   -5.4644   -1.0069    0.6115 C   0  0  0  0  0  0  0  0  0  0  0  0
   -5.1871    0.4247    0.0838 C   0  0  0  0  0  0  0  0  0  0  0  0
   -5.4413    0.1607    1.5107 C   0  0  0  0  0  0  0  0  0  0  0  0
   -6.6954   -1.4766   -0.0596 C   0  0  0  0  0  0  0  0  0  0  0  0
   -6.6949   -2.1703   -1.0624 O   0  0  0  0  0  0  0  0  0  0  0  0
   -7.8211   -0.9348    0.5847 N   0  0  0  0  0  0  0  0  0  0  0  0
   -9.1928   -0.8242    0.2321 C   0  0  0  0  0  0  0  0  0  0  0  0
   -9.6800    0.4604    0.8805 C   0  0  0  0  0  0  0  0  0  0  0  0
   -9.9108    1.6466    0.0510 C   0  0  0  0  0  0  0  0  0  0  0  0
   -9.9861    1.5014   -1.2986 O   0  0  0  0  0  0  0  0  0  0  0  0
  -10.2866    0.1892   -1.6938 C   0  0  0  0  0  0  0  0  0  0  0  0
   -9.0967   -0.6095   -1.2959 C   0  0  0  0  0  0  0  0  0  0  0  0
   -1.0458   -0.7611    2.1187 C   0  0  0  0  0  0  0  0  0  0  0  0
    0.2165   -0.2804    1.8338 C   0  0  0  0  0  0  0  0  0  0  0  0
    6.7898    1.2083   -1.3180 C   0  0  0  0  0  0  0  0  0  0  0  0
    7.8928    1.6255   -0.6210 C   0  0  0  0  0  0  0  0  0  0  0  0
    8.6400    0.6140    0.0373 C   0  0  0  0  0  0  0  0  0  0  0  0
    8.2298    3.0559   -0.4426 C   0  0  0  0  0  0  0  0  0  0  0  0
    8.8608    3.3412    0.7402 F   0  0  0  0  0  0  0  0  0  0  0  0
    6.9393    3.6570   -0.2995 F   0  0  0  0  0  0  0  0  0  0  0  0
    8.7695    3.6654   -1.5202 F   0  0  0  0  0  0  0  0  0  0  0  0
   10.4151   -1.4408   -2.0615 H   0  0  0  0  0  0  0  0  0  0  0  0
   11.2477    0.0838   -1.6632 H   0  0  0  0  0  0  0  0  0  0  0  0
   12.1324   -1.1953   -2.4203 H   0  0  0  0  0  0  0  0  0  0  0  0
   10.6635   -2.9041    0.5130 H   0  0  0  0  0  0  0  0  0  0  0  0
    6.9096   -2.1421   -0.8451 H   0  0  0  0  0  0  0  0  0  0  0  0
    4.7701   -0.9725   -2.5311 H   0  0  0  0  0  0  0  0  0  0  0  0
    4.3857    2.0127    2.0199 H   0  0  0  0  0  0  0  0  0  0  0  0
    1.9560    1.4448    2.0448 H   0  0  0  0  0  0  0  0  0  0  0  0
    0.2495   -0.6885   -1.5364 H   0  0  0  0  0  0  0  0  0  0  0  0
   -1.9772   -1.5003   -1.0518 H   0  0  0  0  0  0  0  0  0  0  0  0
   -3.5727   -1.0450    2.2275 H   0  0  0  0  0  0  0  0  0  0  0  0
   -4.1591    0.7304   -0.1357 H   0  0  0  0  0  0  0  0  0  0  0  0
   -5.9167    0.8819   -0.5339 H   0  0  0  0  0  0  0  0  0  0  0  0
   -4.6470    0.3242    2.2415 H   0  0  0  0  0  0  0  0  0  0  0  0
   -6.4406    0.5644    1.8960 H   0  0  0  0  0  0  0  0  0  0  0  0
   -7.6534   -0.7215    1.6571 H   0  0  0  0  0  0  0  0  0  0  0  0
   -9.7641   -1.7053    0.3291 H   0  0  0  0  0  0  0  0  0  0  0  0
   -8.8673    0.7506    1.6644 H   0  0  0  0  0  0  0  0  0  0  0  0
  -10.5401    0.2368    1.5303 H   0  0  0  0  0  0  0  0  0  0  0  0
   -9.1004    2.4247    0.2307 H   0  0  0  0  0  0  0  0  0  0  0  0
  -10.8334    2.2288    0.3656 H   0  0  0  0  0  0  0  0  0  0  0  0
  -11.1737   -0.2275   -1.2107 H   0  0  0  0  0  0  0  0  0  0  0  0
  -10.3673    0.2346   -2.8040 H   0  0  0  0  0  0  0  0  0  0  0  0
   -9.0005   -1.5775   -1.7756 H   0  0  0  0  0  0  0  0  0  0  0  0
   -8.1722    0.0268   -1.4325 H   0  0  0  0  0  0  0  0  0  0  0  0
   -1.4749   -0.7838    3.1210 H   0  0  0  0  0  0  0  0  0  0  0  0
    0.8337    0.0116    2.6254 H   0  0  0  0  0  0  0  0  0  0  0  0
    6.1623    1.9376   -1.8519 H   0  0  0  0  0  0  0  0  0  0  0  0
    9.5340    0.9184    0.6134 H   0  0  0  0  0  0  0  0  0  0  0  0
  1  2  1  0
  2  3  1  0
  3  4  1  0
  4  5  2  0
  4  6  1  0
  6  7  2  0
  7  8  1  0
  8  9  1  0
  9 10  1  0
 10 11  2  0
 11 12  1  0
 12 13  2  0
 13 14  1  0
 14 15  2  0
 14 16  1  0
 16 17  2  0
 17 18  1  0
 18 19  2  0
 19 20  1  0
 20 21  1  0
 21 22  2  0
 21 23  1  0
 23 24  1  0
 24 25  1  0
 23 26  1  0
 26 27  2  0
 26 28  1  0
 28 29  1  0
 29 30  1  0
 30 31  1  0
 31 32  1  0
 32 33  1  0
 33 34  1  0
 19 35  1  0
 35 36  2  0
  8 37  2  0
 37 38  1  0
 38 39  2  0
 38 40  1  0
 40 41  1  0
 40 42  1  0
 40 43  1  0
 39  6  1  0
 15 10  1  0
 36 16  1  0
 25 23  1  0
 34 29  1  0
  1 44  1  0
  1 45  1  0
  1 46  1  0
  3 47  1  0
  7 48  1  0
  9 49  1  0
 12 50  1  0
 13 51  1  0
 17 52  1  0
 18 53  1  0
 20 54  1  0
 24 55  1  0
 24 56  1  0
 25 57  1  0
 25 58  1  0
 28 59  1  0
 29 60  1  0
 30 61  1  0
 30 62  1  0
 31 63  1  0
 31 64  1  0
 33 65  1  0
 33 66  1  0
 34 67  1  0
 34 68  1  0
 35 69  1  0
 36 70  1  0
 37 71  1  0
 39 72  1  0
M  END
$$$$
[H]c1nc(N([H])c2c([H])c(C(=O)N3C([H])([H])c4nc(N([H])C5([H])C([H])([H])C([H])([H])N(C([H])([H])[H])C([H])([H])C5([H])[H])c([H])c([H])c4C([H])([H])C3([H])[H])c([H])c([H])c2C([H])([H])[H])nc(-c2c([H])nc([H])c([H])c2[H])c1[H]
     RDKit          3D

 74 79  0  0  0  0  0  0  0  0999 V2000
   10.6627   -0.1911   -1.5963 C   0  0  0  0  0  0  0  0  0  0  0  0
    9.3313    0.3794   -1.6165 N   0  0  0  0  0  0  0  0  0  0  0  0
    8.6636   -0.0155   -0.3895 C   0  0  0  0  0  0  0  0  0  0  0  0
    7.2073    0.4369   -0.3980 C   0  0  0  0  0  0  0  0  0  0  0  0
    6.4963   -0.0077   -1.6347 C   0  0  0  0  0  0  0  0  0  0  0  0
    7.4250   -0.9493   -2.3963 C   0  0  0  0  0  0  0  0  0  0  0  0
    8.6472   -0.1452   -2.7842 C   0  0  0  0  0  0  0  0  0  0  0  0
    5.2194   -0.5938   -1.4127 N   0  0  0  0  0  0  0  0  0  0  0  0
    4.1051    0.2294   -1.0208 C   0  0  0  0  0  0  0  0  0  0  0  0
    4.2210    1.5901   -0.9135 C   0  0  0  0  0  0  0  0  0  0  0  0
    3.1316    2.3400   -0.5236 C   0  0  0  0  0  0  0  0  0  0  0  0
    1.9567    1.7178   -0.2516 C   0  0  0  0  0  0  0  0  0  0  0  0
    0.7215    2.5059    0.1428 C   0  0  0  0  0  0  0  0  0  0  0  0
   -0.4440    1.8464   -0.5801 C   0  0  0  0  0  0  0  0  0  0  0  0
   -0.6167    0.4428   -0.0965 N   0  0  0  0  0  0  0  0  0  0  0  0
    0.5668   -0.3226   -0.0312 C   0  0  0  0  0  0  0  0  0  0  0  0
    1.8333    0.3603   -0.3558 C   0  0  0  0  0  0  0  0  0  0  0  0
    2.9225   -0.3456   -0.7410 N   0  0  0  0  0  0  0  0  0  0  0  0
   -1.9322    0.1201    0.2183 C   0  0  0  0  0  0  0  0  0  0  0  0
   -2.7664    1.1115    0.0431 O   0  0  0  0  0  0  0  0  0  0  0  0
   -2.4899   -1.1278    0.7002 C   0  0  0  0  0  0  0  0  0  0  0  0
   -1.8198   -2.2988    0.9099 C   0  0  0  0  0  0  0  0  0  0  0  0
   -2.4779   -3.4446    1.3887 C   0  0  0  0  0  0  0  0  0  0  0  0
   -3.8090   -3.4609    1.6709 C   0  0  0  0  0  0  0  0  0  0  0  0
   -4.4609   -4.7140    2.1740 C   0  0  0  0  0  0  0  0  0  0  0  0
   -4.5363   -2.2785    1.4700 C   0  0  0  0  0  0  0  0  0  0  0  0
   -5.9015   -2.3222    1.7715 N   0  0  0  0  0  0  0  0  0  0  0  0
   -6.8925   -1.3358    1.6764 C   0  0  0  0  0  0  0  0  0  0  0  0
   -8.1570   -1.7002    2.0577 N   0  0  0  0  0  0  0  0  0  0  0  0
   -9.2096   -0.8886    2.0280 C   0  0  0  0  0  0  0  0  0  0  0  0
   -9.0327    0.4064    1.5878 C   0  0  0  0  0  0  0  0  0  0  0  0
   -7.7701    0.7934    1.2000 C   0  0  0  0  0  0  0  0  0  0  0  0
   -6.7612   -0.0933    1.2622 N   0  0  0  0  0  0  0  0  0  0  0  0
   -7.5530    2.1610    0.7285 C   0  0  0  0  0  0  0  0  0  0  0  0
   -6.2760    2.5818    0.3432 C   0  0  0  0  0  0  0  0  0  0  0  0
   -6.0402    3.8597   -0.1090 C   0  0  0  0  0  0  0  0  0  0  0  0
   -7.0747    4.7693   -0.1935 C   0  0  0  0  0  0  0  0  0  0  0  0
   -8.2898    4.3416    0.1823 N   0  0  0  0  0  0  0  0  0  0  0  0
   -8.5439    3.0899    0.6296 C   0  0  0  0  0  0  0  0  0  0  0  0
   -3.8760   -1.1707    1.0020 C   0  0  0  0  0  0  0  0  0  0  0  0
   11.3303    0.5522   -1.0796 H   0  0  0  0  0  0  0  0  0  0  0  0
   11.0618   -0.3850   -2.6119 H   0  0  0  0  0  0  0  0  0  0  0  0
   10.6421   -1.1020   -0.9888 H   0  0  0  0  0  0  0  0  0  0  0  0
    9.1590    0.5260    0.4415 H   0  0  0  0  0  0  0  0  0  0  0  0
    8.7427   -1.0806   -0.1848 H   0  0  0  0  0  0  0  0  0  0  0  0
    7.1776    1.5112   -0.2000 H   0  0  0  0  0  0  0  0  0  0  0  0
    6.7205   -0.0968    0.4681 H   0  0  0  0  0  0  0  0  0  0  0  0
    6.3298    0.8718   -2.3111 H   0  0  0  0  0  0  0  0  0  0  0  0
    6.9032   -1.2350   -3.3378 H   0  0  0  0  0  0  0  0  0  0  0  0
    7.7376   -1.8058   -1.7980 H   0  0  0  0  0  0  0  0  0  0  0  0
    9.2996   -0.7956   -3.3908 H   0  0  0  0  0  0  0  0  0  0  0  0
    8.2995    0.7122   -3.3928 H   0  0  0  0  0  0  0  0  0  0  0  0
    5.0761   -1.6142   -1.5297 H   0  0  0  0  0  0  0  0  0  0  0  0
    5.1678    2.0850   -1.1479 H   0  0  0  0  0  0  0  0  0  0  0  0
    3.2144    3.4248   -0.4355 H   0  0  0  0  0  0  0  0  0  0  0  0
    0.6595    2.4677    1.2229 H   0  0  0  0  0  0  0  0  0  0  0  0
    0.8476    3.5061   -0.2510 H   0  0  0  0  0  0  0  0  0  0  0  0
   -1.3459    2.4468   -0.4415 H   0  0  0  0  0  0  0  0  0  0  0  0
   -0.2440    1.7544   -1.6615 H   0  0  0  0  0  0  0  0  0  0  0  0
    0.4721   -1.2039   -0.7486 H   0  0  0  0  0  0  0  0  0  0  0  0
    0.7448   -0.7817    0.9779 H   0  0  0  0  0  0  0  0  0  0  0  0
   -0.7725   -2.3758    0.7075 H   0  0  0  0  0  0  0  0  0  0  0  0
   -1.9100   -4.3531    1.5402 H   0  0  0  0  0  0  0  0  0  0  0  0
   -3.7814   -5.5667    2.1400 H   0  0  0  0  0  0  0  0  0  0  0  0
   -5.2698   -4.9244    1.4356 H   0  0  0  0  0  0  0  0  0  0  0  0
   -4.8170   -4.5696    3.1967 H   0  0  0  0  0  0  0  0  0  0  0  0
   -6.2490   -3.2823    2.1418 H   0  0  0  0  0  0  0  0  0  0  0  0
  -10.2091   -1.1860    2.3335 H   0  0  0  0  0  0  0  0  0  0  0  0
   -9.9098    1.0695    1.5675 H   0  0  0  0  0  0  0  0  0  0  0  0
   -5.4797    1.8828    0.4104 H   0  0  0  0  0  0  0  0  0  0  0  0
   -5.0601    4.2115   -0.4131 H   0  0  0  0  0  0  0  0  0  0  0  0
   -6.9821    5.7873   -0.5340 H   0  0  0  0  0  0  0  0  0  0  0  0
   -9.5428    2.8623    0.8990 H   0  0  0  0  0  0  0  0  0  0  0  0
   -4.3926   -0.2387    0.8333 H   0  0  0  0  0  0  0  0  0  0  0  0
  1  2  1  0
  2  3  1  0
  3  4  1  0
  4  5  1  0
  5  6  1  0
  6  7  1  0
  5  8  1  0
  8  9  1  0
  9 10  2  0
 10 11  1  0
 11 12  2  0
 12 13  1  0
 13 14  1  0
 14 15  1  0
 15 16  1  0
 16 17  1  0
 17 18  2  0
 15 19  1  0
 19 20  2  0
 19 21  1  0
 21 22  2  0
 22 23  1  0
 23 24  2  0
 24 25  1  0
 24 26  1  0
 26 27  1  0
 27 28  1  0
 28 29  2  0
 29 30  1  0
 30 31  2  0
 31 32  1  0
 32 33  2  0
 32 34  1  0
 34 35  2  0
 35 36  1  0
 36 37  2  0
 37 38  1  0
 38 39  2  0
 26 40  2  0
  7  2  1  0
 18  9  1  0
 40 21  1  0
 17 12  1  0
 33 28  1  0
 39 34  1  0
  1 41  1  0
  1 42  1  0
  1 43  1  0
  3 44  1  0
  3 45  1  0
  4 46  1  0
  4 47  1  0
  5 48  1  0
  6 49  1  0
  6 50  1  0
  7 51  1  0
  7 52  1  0
  8 53  1  0
 10 54  1  0
 11 55  1  0
 13 56  1  0
 13 57  1  0
 14 58  1  0
 14 59  1  0
 16 60  1  0
 16 61  1  0
 22 62  1  0
 23 63  1  0
 25 64  1  0
 25 65  1  0
 25 66  1  0
 27 67  1  0
 30 68  1  0
 31 69  1  0
 35 70  1  0
 36 71  1  0
 37 72  1  0
 39 73  1  0
 40 74  1  0
M  END
$$$$
[H]c1nc(N([H])[H])c2c(-c3c([H])c([H])c(N([H])C(=O)N([H])C([H])([H])C([H])([H])C([H])([H])c4c([H])c([H])c([H])c([H])c4[H])c([H])c3[H])c([H])sc2c1-c1nc([H])n(C([H])([H])[H])c1[H]
     RDKit          3D

 61 65  0  0  0  0  0  0  0  0999 V2000
   10.5919   -0.8039    1.2269 C   0  0  0  0  0  0  0  0  0  0  0  0
    9.5145   -0.4629    0.3273 N   0  0  0  0  0  0  0  0  0  0  0  0
    9.5831   -0.2358   -0.9741 C   0  0  0  0  0  0  0  0  0  0  0  0
    8.3687    0.0513   -1.4516 N   0  0  0  0  0  0  0  0  0  0  0  0
    7.4512    0.0155   -0.4329 C   0  0  0  0  0  0  0  0  0  0  0  0
    8.1912   -0.3066    0.6608 C   0  0  0  0  0  0  0  0  0  0  0  0
    6.0347    0.2832   -0.5967 C   0  0  0  0  0  0  0  0  0  0  0  0
    5.5623    0.6292   -1.8752 C   0  0  0  0  0  0  0  0  0  0  0  0
    4.2601    0.8547   -1.9426 N   0  0  0  0  0  0  0  0  0  0  0  0
    3.3799    0.7852   -0.9380 C   0  0  0  0  0  0  0  0  0  0  0  0
    2.0441    1.1090   -1.2677 N   0  0  0  0  0  0  0  0  0  0  0  0
    3.7989    0.4403    0.3657 C   0  0  0  0  0  0  0  0  0  0  0  0
    3.0711    0.3286    1.4930 C   0  0  0  0  0  0  0  0  0  0  0  0
    3.7544   -0.0136    2.6516 C   0  0  0  0  0  0  0  0  0  0  0  0
    5.3476   -0.1631    2.1230 S   0  0  0  0  0  0  0  0  0  0  0  0
    5.1494    0.2007    0.4708 C   0  0  0  0  0  0  0  0  0  0  0  0
    1.5836    0.4739    1.5946 C   0  0  0  0  0  0  0  0  0  0  0  0
    1.0387    1.4753    2.3588 C   0  0  0  0  0  0  0  0  0  0  0  0
   -0.2914    1.6516    2.5633 C   0  0  0  0  0  0  0  0  0  0  0  0
   -1.2001    0.7608    1.9618 C   0  0  0  0  0  0  0  0  0  0  0  0
   -2.5677    0.9476    2.2232 N   0  0  0  0  0  0  0  0  0  0  0  0
   -3.6292    0.5768    1.3297 C   0  0  0  0  0  0  0  0  0  0  0  0
   -3.2754    0.0927    0.2562 O   0  0  0  0  0  0  0  0  0  0  0  0
   -4.9626    0.7696    1.6956 N   0  0  0  0  0  0  0  0  0  0  0  0
   -6.2398    0.5759    1.1779 C   0  0  0  0  0  0  0  0  0  0  0  0
   -6.6952    1.2488   -0.0508 C   0  0  0  0  0  0  0  0  0  0  0  0
   -6.1605    0.7987   -1.3384 C   0  0  0  0  0  0  0  0  0  0  0  0
   -6.6736   -0.6041   -1.5701 C   0  0  0  0  0  0  0  0  0  0  0  0
   -7.9149   -0.6766   -2.1884 C   0  0  0  0  0  0  0  0  0  0  0  0
   -8.4806   -1.8794   -2.4570 C   0  0  0  0  0  0  0  0  0  0  0  0
   -7.8089   -3.0442   -2.1090 C   0  0  0  0  0  0  0  0  0  0  0  0
   -6.5767   -2.9966   -1.4950 C   0  0  0  0  0  0  0  0  0  0  0  0
   -6.0266   -1.7388   -1.2348 C   0  0  0  0  0  0  0  0  0  0  0  0
   -0.6548   -0.2439    1.1958 C   0  0  0  0  0  0  0  0  0  0  0  0
    0.7086   -0.3943    1.0087 C   0  0  0  0  0  0  0  0  0  0  0  0
   11.4908   -1.0313    0.6232 H   0  0  0  0  0  0  0  0  0  0  0  0
   10.8689    0.0449    1.9030 H   0  0  0  0  0  0  0  0  0  0  0  0
   10.3287   -1.6762    1.8652 H   0  0  0  0  0  0  0  0  0  0  0  0
   10.4905   -0.2764   -1.5626 H   0  0  0  0  0  0  0  0  0  0  0  0
    7.8448   -0.4339    1.6709 H   0  0  0  0  0  0  0  0  0  0  0  0
    6.2582    0.6834   -2.6750 H   0  0  0  0  0  0  0  0  0  0  0  0
    1.6240    1.9687   -0.8668 H   0  0  0  0  0  0  0  0  0  0  0  0
    1.4794    0.5091   -1.8985 H   0  0  0  0  0  0  0  0  0  0  0  0
    3.2990   -0.1412    3.6540 H   0  0  0  0  0  0  0  0  0  0  0  0
    1.6979    2.2091    2.8623 H   0  0  0  0  0  0  0  0  0  0  0  0
   -0.6983    2.4549    3.1756 H   0  0  0  0  0  0  0  0  0  0  0  0
   -2.8460    1.3835    3.1235 H   0  0  0  0  0  0  0  0  0  0  0  0
   -5.0209    1.2251    2.7338 H   0  0  0  0  0  0  0  0  0  0  0  0
   -7.0180    0.8794    1.9780 H   0  0  0  0  0  0  0  0  0  0  0  0
   -6.4929   -0.5505    1.1098 H   0  0  0  0  0  0  0  0  0  0  0  0
   -6.4971    2.3652    0.0744 H   0  0  0  0  0  0  0  0  0  0  0  0
   -7.8368    1.1511   -0.1023 H   0  0  0  0  0  0  0  0  0  0  0  0
   -6.6582    1.4581   -2.1561 H   0  0  0  0  0  0  0  0  0  0  0  0
   -5.0980    0.8067   -1.5237 H   0  0  0  0  0  0  0  0  0  0  0  0
   -8.4591    0.2174   -2.4690 H   0  0  0  0  0  0  0  0  0  0  0  0
   -9.4481   -1.9985   -2.9378 H   0  0  0  0  0  0  0  0  0  0  0  0
   -8.2676   -3.9967   -2.3278 H   0  0  0  0  0  0  0  0  0  0  0  0
   -6.0115   -3.8672   -1.2035 H   0  0  0  0  0  0  0  0  0  0  0  0
   -5.0604   -1.6908   -0.7550 H   0  0  0  0  0  0  0  0  0  0  0  0
   -1.3191   -0.9869    0.7156 H   0  0  0  0  0  0  0  0  0  0  0  0
    1.0735   -1.2125    0.3973 H   0  0  0  0  0  0  0  0  0  0  0  0
  1  2  1  0
  2  3  1  0
  3  4  2  0
  4  5  1  0
  5  6  2  0
  5  7  1  0
  7  8  2  0
  8  9  1  0
  9 10  2  0
 10 11  1  0
 10 12  1  0
 12 13  1  0
 13 14  2  0
 14 15  1  0
 15 16  1  0
 13 17  1  0
 17 18  2  0
 18 19  1  0
 19 20  2  0
 20 21  1  0
 21 22  1  0
 22 23  2  0
 22 24  1  0
 24 25  1  0
 25 26  1  0
 26 27  1  0
 27 28  1  0
 28 29  2  0
 29 30  1  0
 30 31  2  0
 31 32  1  0
 32 33  2  0
 20 34  1  0
 34 35  2  0
  6  2  1  0
 16  7  1  0
 35 17  1  0
 16 12  2  0
 33 28  1  0
  1 36  1  0
  1 37  1  0
  1 38  1  0
  3 39  1  0
  6 40  1  0
  8 41  1  0
 11 42  1  0
 11 43  1  0
 14 44  1  0
 18 45  1  0
 19 46  1  0
 21 47  1  0
 24 48  1  0
 25 49  1  0
 25 50  1  0
 26 51  1  0
 26 52  1  0
 27 53  1  0
 27 54  1  0
 29 55  1  0
 30 56  1  0
 31 57  1  0
 32 58  1  0
 33 59  1  0
 34 60  1  0
 35 61  1  0
M  END
$$$$
[H]c1nc2c([H])c(C([H])([H])[H])c([H])c([H])n2c1C(=O)N([H])c1c([H])c(N2C([H])([H])C([H])([H])N(C(=O)N([H])c3c([H])c([H])c(OC(F)(F)F)c([H])c3[H])C([H])([H])C2([H])[H])c([H])c([H])c1C([H])([H])[H]
     RDKit          3D

 67 71  0  0  0  0  0  0  0  0999 V2000
  -11.0543   -0.7986   -0.3633 C   0  0  0  0  0  0  0  0  0  0  0  0
   -9.6193   -0.4694   -0.5847 C   0  0  0  0  0  0  0  0  0  0  0  0
   -8.6611   -0.6247    0.4050 C   0  0  0  0  0  0  0  0  0  0  0  0
   -7.3475   -0.3115    0.1655 C   0  0  0  0  0  0  0  0  0  0  0  0
   -6.9684    0.1547   -1.0475 N   0  0  0  0  0  0  0  0  0  0  0  0
   -5.7621    0.5391   -1.5127 C   0  0  0  0  0  0  0  0  0  0  0  0
   -5.9690    0.9491   -2.8204 C   0  0  0  0  0  0  0  0  0  0  0  0
   -7.2651    0.7942   -3.0823 N   0  0  0  0  0  0  0  0  0  0  0  0
   -7.9010    0.3064   -2.0081 C   0  0  0  0  0  0  0  0  0  0  0  0
   -9.2495    0.0029   -1.8162 C   0  0  0  0  0  0  0  0  0  0  0  0
   -4.4404    0.5018   -0.9120 C   0  0  0  0  0  0  0  0  0  0  0  0
   -3.6252    1.3707   -1.3755 O   0  0  0  0  0  0  0  0  0  0  0  0
   -3.9902   -0.3688    0.0877 N   0  0  0  0  0  0  0  0  0  0  0  0
   -2.7448   -0.4504    0.7162 C   0  0  0  0  0  0  0  0  0  0  0  0
   -1.6476    0.3482    0.4716 C   0  0  0  0  0  0  0  0  0  0  0  0
   -0.4353    0.1985    1.1486 C   0  0  0  0  0  0  0  0  0  0  0  0
   -0.3292   -0.7868    2.1006 C   0  0  0  0  0  0  0  0  0  0  0  0
   -1.3971   -1.6100    2.3814 C   0  0  0  0  0  0  0  0  0  0  0  0
   -2.5727   -1.4388    1.7006 C   0  0  0  0  0  0  0  0  0  0  0  0
   -3.6980   -2.3282    2.0173 C   0  0  0  0  0  0  0  0  0  0  0  0
    0.6708    1.0305    0.8490 N   0  0  0  0  0  0  0  0  0  0  0  0
    0.8022    1.6096   -0.4694 C   0  0  0  0  0  0  0  0  0  0  0  0
    2.1239    1.2756   -1.0541 C   0  0  0  0  0  0  0  0  0  0  0  0
    3.1948    1.0586   -0.1238 N   0  0  0  0  0  0  0  0  0  0  0  0
    3.0751    1.0048    1.3029 C   0  0  0  0  0  0  0  0  0  0  0  0
    1.7058    1.3785    1.7947 C   0  0  0  0  0  0  0  0  0  0  0  0
    4.5183    0.8789   -0.6841 C   0  0  0  0  0  0  0  0  0  0  0  0
    4.6873    0.9198   -1.9237 O   0  0  0  0  0  0  0  0  0  0  0  0
    5.6357    0.6558    0.1495 N   0  0  0  0  0  0  0  0  0  0  0  0
    6.9714    0.4682   -0.2005 C   0  0  0  0  0  0  0  0  0  0  0  0
    7.8459    0.0174    0.8043 C   0  0  0  0  0  0  0  0  0  0  0  0
    9.1843   -0.1934    0.5883 C   0  0  0  0  0  0  0  0  0  0  0  0
    9.7147    0.0391   -0.6545 C   0  0  0  0  0  0  0  0  0  0  0  0
   11.0538   -0.1695   -0.8801 O   0  0  0  0  0  0  0  0  0  0  0  0
   11.5641   -1.4237   -1.3158 C   0  0  0  0  0  0  0  0  0  0  0  0
   12.9349   -1.2956   -1.4450 F   0  0  0  0  0  0  0  0  0  0  0  0
   11.3482   -2.3830   -0.3308 F   0  0  0  0  0  0  0  0  0  0  0  0
   11.0182   -1.8119   -2.5157 F   0  0  0  0  0  0  0  0  0  0  0  0
    8.8814    0.4772   -1.6426 C   0  0  0  0  0  0  0  0  0  0  0  0
    7.5115    0.6935   -1.4227 C   0  0  0  0  0  0  0  0  0  0  0  0
  -11.2689   -1.0060    0.7103 H   0  0  0  0  0  0  0  0  0  0  0  0
  -11.3673   -1.6499   -1.0222 H   0  0  0  0  0  0  0  0  0  0  0  0
  -11.6820    0.0710   -0.6656 H   0  0  0  0  0  0  0  0  0  0  0  0
   -9.0205   -1.0031    1.3588 H   0  0  0  0  0  0  0  0  0  0  0  0
   -6.6713   -0.4329    0.9820 H   0  0  0  0  0  0  0  0  0  0  0  0
   -5.2478    1.3310   -3.5361 H   0  0  0  0  0  0  0  0  0  0  0  0
   -9.9445    0.1517   -2.6421 H   0  0  0  0  0  0  0  0  0  0  0  0
   -4.7084   -1.0986    0.3820 H   0  0  0  0  0  0  0  0  0  0  0  0
   -1.7046    1.1191   -0.2489 H   0  0  0  0  0  0  0  0  0  0  0  0
    0.6242   -0.9054    2.6254 H   0  0  0  0  0  0  0  0  0  0  0  0
   -1.2661   -2.3720    3.1398 H   0  0  0  0  0  0  0  0  0  0  0  0
   -4.0498   -2.8790    1.1212 H   0  0  0  0  0  0  0  0  0  0  0  0
   -4.5213   -1.6997    2.4152 H   0  0  0  0  0  0  0  0  0  0  0  0
   -3.3727   -3.0866    2.7474 H   0  0  0  0  0  0  0  0  0  0  0  0
    0.6880    2.7136   -0.4146 H   0  0  0  0  0  0  0  0  0  0  0  0
    0.0327    1.1859   -1.1762 H   0  0  0  0  0  0  0  0  0  0  0  0
    2.4533    2.1479   -1.6948 H   0  0  0  0  0  0  0  0  0  0  0  0
    2.0916    0.3826   -1.7147 H   0  0  0  0  0  0  0  0  0  0  0  0
    3.4362    0.0393    1.6639 H   0  0  0  0  0  0  0  0  0  0  0  0
    3.7872    1.7848    1.7046 H   0  0  0  0  0  0  0  0  0  0  0  0
    1.5157    0.8583    2.7425 H   0  0  0  0  0  0  0  0  0  0  0  0
    1.6407    2.4921    1.9194 H   0  0  0  0  0  0  0  0  0  0  0  0
    5.3786    0.6381    1.1951 H   0  0  0  0  0  0  0  0  0  0  0  0
    7.4459   -0.1712    1.7864 H   0  0  0  0  0  0  0  0  0  0  0  0
    9.7876   -0.5418    1.4184 H   0  0  0  0  0  0  0  0  0  0  0  0
    9.2478    0.6770   -2.6447 H   0  0  0  0  0  0  0  0  0  0  0  0
    6.9314    1.0450   -2.2482 H   0  0  0  0  0  0  0  0  0  0  0  0
  1  2  1  0
  2  3  1  0
  3  4  2  0
  4  5  1  0
  5  6  1  0
  6  7  2  0
  7  8  1  0
  8  9  2  0
  9 10  1  0
  6 11  1  0
 11 12  2  0
 11 13  1  0
 13 14  1  0
 14 15  2  0
 15 16  1  0
 16 17  2  0
 17 18  1  0
 18 19  2  0
 19 20  1  0
 16 21  1  0
 21 22  1  0
 22 23  1  0
 23 24  1  0
 24 25  1  0
 25 26  1  0
 24 27  1  0
 27 28  2  0
 27 29  1  0
 29 30  1  0
 30 31  2  0
 31 32  1  0
 32 33  2  0
 33 34  1  0
 34 35  1  0
 35 36  1  0
 35 37  1  0
 35 38  1  0
 33 39  1  0
 39 40  2  0
 10  2  2  0
 19 14  1  0
 26 21  1  0
 40 30  1  0
  9  5  1  0
  1 41  1  0
  1 42  1  0
  1 43  1  0
  3 44  1  0
  4 45  1  0
  7 46  1  0
 10 47  1  0
 13 48  1  0
 15 49  1  0
 17 50  1  0
 18 51  1  0
 20 52  1  0
 20 53  1  0
 20 54  1  0
 22 55  1  0
 22 56  1  0
 23 57  1  0
 23 58  1  0
 25 59  1  0
 25 60  1  0
 26 61  1  0
 26 62  1  0
 29 63  1  0
 31 64  1  0
 32 65  1  0
 39 66  1  0
 40 67  1  0
M  END
$$$$
[H]c1nc(N([H])[H])c2c(C#Cc3c(C([H])([H])[H])nc([H])c(N([H])C(=O)c4sc(C(F)(F)F)c([H])c4[H])c3[H])nn(C3([H])C([H])([H])C([H])([H])C([H])([H])C3([H])[H])c2n1
     RDKit          3D

 56 60  0  0  0  0  0  0  0  0999 V2000
    0.8101   -4.3576    0.3375 C   0  0  0  0  0  0  0  0  0  0  0  0
    1.7867   -3.2569    0.1067 C   0  0  0  0  0  0  0  0  0  0  0  0
    3.1129   -3.4934    0.1739 N   0  0  0  0  0  0  0  0  0  0  0  0
    4.0720   -2.5810   -0.0320 C   0  0  0  0  0  0  0  0  0  0  0  0
    3.7064   -1.2878   -0.3375 C   0  0  0  0  0  0  0  0  0  0  0  0
    4.6662   -0.2634   -0.5162 N   0  0  0  0  0  0  0  0  0  0  0  0
    5.8992   -0.1763    0.1659 C   0  0  0  0  0  0  0  0  0  0  0  0
    6.2153   -1.0238    1.0140 O   0  0  0  0  0  0  0  0  0  0  0  0
    6.8039    0.9368   -0.1462 C   0  0  0  0  0  0  0  0  0  0  0  0
    6.6294    1.9403   -1.0580 C   0  0  0  0  0  0  0  0  0  0  0  0
    7.6126    2.8508   -1.1649 C   0  0  0  0  0  0  0  0  0  0  0  0
    8.7026    2.6949   -0.3494 C   0  0  0  0  0  0  0  0  0  0  0  0
    8.3351    1.2950    0.5372 S   0  0  0  0  0  0  0  0  0  0  0  0
    9.9313    3.5855   -0.3025 C   0  0  0  0  0  0  0  0  0  0  0  0
   10.0044    4.2743    0.8928 F   0  0  0  0  0  0  0  0  0  0  0  0
    9.9196    4.5027   -1.3187 F   0  0  0  0  0  0  0  0  0  0  0  0
   11.0085    2.7407   -0.4739 F   0  0  0  0  0  0  0  0  0  0  0  0
    2.3590   -1.0027   -0.4189 C   0  0  0  0  0  0  0  0  0  0  0  0
    1.3917   -1.9812   -0.1954 C   0  0  0  0  0  0  0  0  0  0  0  0
   -0.0104   -1.6176   -0.2080 C   0  0  0  0  0  0  0  0  0  0  0  0
   -1.1944   -1.2655   -0.1857 C   0  0  0  0  0  0  0  0  0  0  0  0
   -2.5540   -0.7968   -0.1112 C   0  0  0  0  0  0  0  0  0  0  0  0
   -2.9939    0.4084   -0.5027 N   0  0  0  0  0  0  0  0  0  0  0  0
   -4.3060    0.5554   -0.2260 N   0  0  0  0  0  0  0  0  0  0  0  0
   -5.0491    1.7565   -0.4974 C   0  0  0  0  0  0  0  0  0  0  0  0
   -6.4994    1.5589   -0.6556 C   0  0  0  0  0  0  0  0  0  0  0  0
   -7.1923    2.1447    0.5592 C   0  0  0  0  0  0  0  0  0  0  0  0
   -6.1467    2.8384    1.3788 C   0  0  0  0  0  0  0  0  0  0  0  0
   -4.8354    2.7084    0.6817 C   0  0  0  0  0  0  0  0  0  0  0  0
   -4.7624   -0.5607    0.3576 C   0  0  0  0  0  0  0  0  0  0  0  0
   -5.9445   -0.9636    0.8338 N   0  0  0  0  0  0  0  0  0  0  0  0
   -6.0962   -2.1816    1.3774 C   0  0  0  0  0  0  0  0  0  0  0  0
   -5.0447   -3.0124    1.4443 N   0  0  0  0  0  0  0  0  0  0  0  0
   -3.8383   -2.6606    0.9883 C   0  0  0  0  0  0  0  0  0  0  0  0
   -2.7271   -3.5608    1.0462 N   0  0  0  0  0  0  0  0  0  0  0  0
   -3.6474   -1.4160    0.4264 C   0  0  0  0  0  0  0  0  0  0  0  0
    1.3791   -5.2801    0.4429 H   0  0  0  0  0  0  0  0  0  0  0  0
    0.0899   -4.4564   -0.5100 H   0  0  0  0  0  0  0  0  0  0  0  0
    0.2289   -4.2188    1.2671 H   0  0  0  0  0  0  0  0  0  0  0  0
    5.1287   -2.8916    0.0459 H   0  0  0  0  0  0  0  0  0  0  0  0
    4.3905    0.4727   -1.2378 H   0  0  0  0  0  0  0  0  0  0  0  0
    5.6971    1.9900   -1.6870 H   0  0  0  0  0  0  0  0  0  0  0  0
    7.5823    3.7094   -1.8813 H   0  0  0  0  0  0  0  0  0  0  0  0
    2.0427    0.0237   -0.6672 H   0  0  0  0  0  0  0  0  0  0  0  0
   -4.5699    2.1983   -1.4283 H   0  0  0  0  0  0  0  0  0  0  0  0
   -6.8319    2.1226   -1.6051 H   0  0  0  0  0  0  0  0  0  0  0  0
   -6.8725    0.5599   -0.8255 H   0  0  0  0  0  0  0  0  0  0  0  0
   -7.8947    2.9413    0.1691 H   0  0  0  0  0  0  0  0  0  0  0  0
   -7.7854    1.4200    1.1239 H   0  0  0  0  0  0  0  0  0  0  0  0
   -6.0527    2.4335    2.4223 H   0  0  0  0  0  0  0  0  0  0  0  0
   -6.3878    3.9291    1.5294 H   0  0  0  0  0  0  0  0  0  0  0  0
   -4.4582    3.6600    0.2723 H   0  0  0  0  0  0  0  0  0  0  0  0
   -4.0471    2.3176    1.3625 H   0  0  0  0  0  0  0  0  0  0  0  0
   -7.0470   -2.5431    1.7751 H   0  0  0  0  0  0  0  0  0  0  0  0
   -2.4711   -3.9427    1.9684 H   0  0  0  0  0  0  0  0  0  0  0  0
   -2.2458   -3.7778    0.1691 H   0  0  0  0  0  0  0  0  0  0  0  0
  1  2  1  0
  2  3  2  0
  3  4  1  0
  4  5  2  0
  5  6  1  0
  6  7  1  0
  7  8  2  0
  7  9  1  0
  9 10  2  0
 10 11  1  0
 11 12  2  0
 12 13  1  0
 12 14  1  0
 14 15  1  0
 14 16  1  0
 14 17  1  0
  5 18  1  0
 18 19  2  0
 19 20  1  0
 20 21  3  0
 21 22  1  0
 22 23  2  0
 23 24  1  0
 24 25  1  0
 25 26  1  0
 26 27  1  0
 27 28  1  0
 28 29  1  0
 24 30  1  0
 30 31  2  0
 31 32  1  0
 32 33  2  0
 33 34  1  0
 34 35  1  0
 34 36  2  0
 19  2  1  0
 36 22  1  0
 13  9  1  0
 29 25  1  0
 36 30  1  0
  1 37  1  0
  1 38  1  0
  1 39  1  0
  4 40  1  0
  6 41  1  0
 10 42  1  0
 11 43  1  0
 18 44  1  0
 25 45  1  0
 26 46  1  0
 26 47  1  0
 27 48  1  0
 27 49  1  0
 28 50  1  0
 28 51  1  0
 29 52  1  0
 29 53  1  0
 32 54  1  0
 35 55  1  0
 35 56  1  0
M  END
$$$$
[H]c1c([H])c(N([H])C(=O)[C@](c2nc3c(c(C([H])([H])[H])c(C([H])([H])[H])n3-c3c([H])c([H])c(OC([H])([H])[H])c(OC([H])([H])[H])c3[H])c(=O)n2[H])(C([H])([H])[H])C([H])([H])C([H])([H])C([H])([H])N=C(N([H])[H])N([H])[H])c([H])c([H])c1Cl
     RDKit          3D

 75 78  0  0  0  0  0  0  0  0999 V2000
    8.0172   -1.3839   -0.5594 C   0  0  0  0  0  0  0  0  0  0  0  0
    7.1207   -0.2951   -0.4503 O   0  0  0  0  0  0  0  0  0  0  0  0
    5.8261   -0.4406   -0.9280 C   0  0  0  0  0  0  0  0  0  0  0  0
    5.4156   -1.6249   -1.4997 C   0  0  0  0  0  0  0  0  0  0  0  0
    4.1266   -1.8014   -1.9872 C   0  0  0  0  0  0  0  0  0  0  0  0
    3.2041   -0.7706   -1.9093 C   0  0  0  0  0  0  0  0  0  0  0  0
    3.6324    0.4074   -1.3338 C   0  0  0  0  0  0  0  0  0  0  0  0
    4.9065    0.5955   -0.8467 C   0  0  0  0  0  0  0  0  0  0  0  0
    5.3331    1.7800   -0.2688 O   0  0  0  0  0  0  0  0  0  0  0  0
    4.5264    2.9234   -0.1053 C   0  0  0  0  0  0  0  0  0  0  0  0
    1.8824   -0.9639   -2.4206 N   0  0  0  0  0  0  0  0  0  0  0  0
    1.5723   -1.4849   -3.6353 C   0  0  0  0  0  0  0  0  0  0  0  0
    2.5649   -1.9457   -4.6469 C   0  0  0  0  0  0  0  0  0  0  0  0
    0.2260   -1.5405   -3.8354 C   0  0  0  0  0  0  0  0  0  0  0  0
   -0.5755   -2.0238   -4.9894 C   0  0  0  0  0  0  0  0  0  0  0  0
   -0.3369   -1.0245   -2.6797 C   0  0  0  0  0  0  0  0  0  0  0  0
    0.7000   -0.6843   -1.8418 C   0  0  0  0  0  0  0  0  0  0  0  0
    0.3992   -0.1548   -0.6466 N   0  0  0  0  0  0  0  0  0  0  0  0
   -0.8519    0.0472   -0.2560 C   0  0  0  0  0  0  0  0  0  0  0  0
   -1.8823   -0.2771   -1.0571 N   0  0  0  0  0  0  0  0  0  0  0  0
   -1.6451   -0.8116   -2.2669 C   0  0  0  0  0  0  0  0  0  0  0  0
   -2.5822   -1.1238   -3.0353 O   0  0  0  0  0  0  0  0  0  0  0  0
   -1.2123    0.6452    1.0805 C   0  0  1  0  0  0  0  0  0  0  0  0
   -0.0087    0.5183    1.9772 C   0  0  0  0  0  0  0  0  0  0  0  0
   -1.6466    2.0395    0.8078 C   0  0  0  0  0  0  0  0  0  0  0  0
   -2.0514    2.8501    1.9898 C   0  0  0  0  0  0  0  0  0  0  0  0
   -2.4560    4.2309    1.4533 C   0  0  0  0  0  0  0  0  0  0  0  0
   -2.8703    5.1239    2.4967 N   0  0  0  0  0  0  0  0  0  0  0  0
   -3.9787    5.0662    3.1273 C   0  0  0  0  0  0  0  0  0  0  0  0
   -4.9269    4.0559    2.8179 N   0  0  0  0  0  0  0  0  0  0  0  0
   -4.2506    6.0229    4.1385 N   0  0  0  0  0  0  0  0  0  0  0  0
   -2.3307   -0.2250    1.5819 C   0  0  0  0  0  0  0  0  0  0  0  0
   -3.4577    0.2290    1.8049 O   0  0  0  0  0  0  0  0  0  0  0  0
   -2.0388   -1.5876    1.7881 N   0  0  0  0  0  0  0  0  0  0  0  0
   -2.8848   -2.6133    2.2371 C   0  0  0  0  0  0  0  0  0  0  0  0
   -2.3633   -3.8240    2.6898 C   0  0  0  0  0  0  0  0  0  0  0  0
   -3.1629   -4.8469    3.1159 C   0  0  0  0  0  0  0  0  0  0  0  0
   -4.5432   -4.7291    3.1189 C   0  0  0  0  0  0  0  0  0  0  0  0
   -5.5509   -6.0402    3.6652 Cl  0  0  0  0  0  0  0  0  0  0  0  0
   -5.0557   -3.5322    2.6711 C   0  0  0  0  0  0  0  0  0  0  0  0
   -4.2348   -2.4896    2.2361 C   0  0  0  0  0  0  0  0  0  0  0  0
    9.0324   -0.9817   -0.3125 H   0  0  0  0  0  0  0  0  0  0  0  0
    7.7281   -2.2330    0.0800 H   0  0  0  0  0  0  0  0  0  0  0  0
    8.0780   -1.7731   -1.5942 H   0  0  0  0  0  0  0  0  0  0  0  0
    6.0981   -2.4590   -1.5841 H   0  0  0  0  0  0  0  0  0  0  0  0
    3.8244   -2.7420   -2.4326 H   0  0  0  0  0  0  0  0  0  0  0  0
    2.9200    1.2159   -1.2689 H   0  0  0  0  0  0  0  0  0  0  0  0
    3.8960    2.8803    0.7844 H   0  0  0  0  0  0  0  0  0  0  0  0
    3.8806    2.9986   -1.0106 H   0  0  0  0  0  0  0  0  0  0  0  0
    5.1375    3.8560   -0.0936 H   0  0  0  0  0  0  0  0  0  0  0  0
    3.5369   -1.4539   -4.5687 H   0  0  0  0  0  0  0  0  0  0  0  0
    2.1924   -1.7102   -5.6866 H   0  0  0  0  0  0  0  0  0  0  0  0
    2.7267   -3.0378   -4.5482 H   0  0  0  0  0  0  0  0  0  0  0  0
   -1.3818   -2.7248   -4.6892 H   0  0  0  0  0  0  0  0  0  0  0  0
    0.1370   -2.4889   -5.7134 H   0  0  0  0  0  0  0  0  0  0  0  0
   -1.0352   -1.1600   -5.5547 H   0  0  0  0  0  0  0  0  0  0  0  0
   -2.8771   -0.1195   -0.7546 H   0  0  0  0  0  0  0  0  0  0  0  0
   -0.3045    0.3843    3.0374 H   0  0  0  0  0  0  0  0  0  0  0  0
    0.5610   -0.3928    1.6967 H   0  0  0  0  0  0  0  0  0  0  0  0
    0.6793    1.3715    1.8260 H   0  0  0  0  0  0  0  0  0  0  0  0
   -0.7549    2.5639    0.3552 H   0  0  0  0  0  0  0  0  0  0  0  0
   -2.4042    2.0230   -0.0034 H   0  0  0  0  0  0  0  0  0  0  0  0
   -2.8970    2.4781    2.5718 H   0  0  0  0  0  0  0  0  0  0  0  0
   -1.1503    2.9743    2.6394 H   0  0  0  0  0  0  0  0  0  0  0  0
   -3.2455    4.1358    0.6888 H   0  0  0  0  0  0  0  0  0  0  0  0
   -1.5906    4.7058    0.9394 H   0  0  0  0  0  0  0  0  0  0  0  0
   -5.6218    3.7160    3.5304 H   0  0  0  0  0  0  0  0  0  0  0  0
   -4.9818    3.6006    1.8706 H   0  0  0  0  0  0  0  0  0  0  0  0
   -4.8475    6.8694    3.9180 H   0  0  0  0  0  0  0  0  0  0  0  0
   -3.8942    5.9439    5.1007 H   0  0  0  0  0  0  0  0  0  0  0  0
   -1.0309   -1.9217    1.5765 H   0  0  0  0  0  0  0  0  0  0  0  0
   -1.2849   -3.9506    2.7016 H   0  0  0  0  0  0  0  0  0  0  0  0
   -2.7637   -5.8030    3.4737 H   0  0  0  0  0  0  0  0  0  0  0  0
   -6.1282   -3.4396    2.6732 H   0  0  0  0  0  0  0  0  0  0  0  0
   -4.7895   -1.6219    1.9060 H   0  0  0  0  0  0  0  0  0  0  0  0
  1  2  1  0
  2  3  1  0
  3  4  2  0
  4  5  1  0
  5  6  2  0
  6  7  1  0
  7  8  2  0
  8  9  1  0
  9 10  1  0
  6 11  1  0
 11 12  1  0
 12 13  1  0
 12 14  2  0
 14 15  1  0
 14 16  1  0
 16 17  2  0
 17 18  1  0
 18 19  2  0
 19 20  1  0
 20 21  1  0
 21 22  2  0
 19 23  1  0
 23 24  1  0
 23 25  1  0
 25 26  1  0
 26 27  1  0
 27 28  1  0
 28 29  2  3
 29 30  1  0
 29 31  1  0
 23 32  1  1
 32 33  2  0
 32 34  1  0
 34 35  1  0
 35 36  2  0
 36 37  1  0
 37 38  2  0
 38 39  1  0
 38 40  1  0
 40 41  2  0
  8  3  1  0
 17 11  1  0
 41 35  1  0
 21 16  1  0
  1 42  1  0
  1 43  1  0
  1 44  1  0
  4 45  1  0
  5 46  1  0
  7 47  1  0
 10 48  1  0
 10 49  1  0
 10 50  1  0
 13 51  1  0
 13 52  1  0
 13 53  1  0
 15 54  1  0
 15 55  1  0
 15 56  1  0
 20 57  1  0
 24 58  1  0
 24 59  1  0
 24 60  1  0
 25 61  1  0
 25 62  1  0
 26 63  1  0
 26 64  1  0
 27 65  1  0
 27 66  1  0
 30 67  1  0
 30 68  1  0
 31 69  1  0
 31 70  1  0
 34 71  1  0
 36 72  1  0
 37 73  1  0
 40 74  1  0
 41 75  1  0
M  END
$$$$
