[H]OC1([H])C([H])([H])C([H])([H])C([H])(n2c([H])c(-c3c([H])c([H])c(F)c(F)c3[H])c3c([H])nc(N([H])C([H])([H])C([H])([H])C([H])([H])C([H])([H])[H])nc32)C([H])([H])C1([H])[H]
     RDKit          3D

 55 58  0  0  0  0  0  0  0  0999 V2000
    6.0002   -0.9342    1.0244 C   0  0  0  0  0  0  0  0  0  0  0  0
    5.6279   -1.7563   -0.1791 C   0  0  0  0  0  0  0  0  0  0  0  0
    5.3587   -0.9253   -1.3902 C   0  0  0  0  0  0  0  0  0  0  0  0
    4.2216    0.0530   -1.1883 C   0  0  0  0  0  0  0  0  0  0  0  0
    2.9877   -0.6123   -0.8708 N   0  0  0  0  0  0  0  0  0  0  0  0
    1.7959    0.1215   -0.6424 C   0  0  0  0  0  0  0  0  0  0  0  0
    1.8206    1.4677   -0.7245 N   0  0  0  0  0  0  0  0  0  0  0  0
    0.7760    2.2679   -0.5332 C   0  0  0  0  0  0  0  0  0  0  0  0
   -0.4426    1.6681   -0.2226 C   0  0  0  0  0  0  0  0  0  0  0  0
   -1.6933    2.1289    0.0333 C   0  0  0  0  0  0  0  0  0  0  0  0
   -2.5031    1.0602    0.2762 C   0  0  0  0  0  0  0  0  0  0  0  0
   -1.7633   -0.0581    0.1729 N   0  0  0  0  0  0  0  0  0  0  0  0
   -2.2127   -1.4117    0.3510 C   0  0  0  0  0  0  0  0  0  0  0  0
   -2.1938   -2.1954   -0.9520 C   0  0  0  0  0  0  0  0  0  0  0  0
   -2.4951   -3.6258   -0.6431 C   0  0  0  0  0  0  0  0  0  0  0  0
   -3.1717   -3.8342    0.6802 C   0  0  0  0  0  0  0  0  0  0  0  0
   -3.3995   -5.2184    0.8064 O   0  0  0  0  0  0  0  0  0  0  0  0
   -2.2702   -3.3738    1.7921 C   0  0  0  0  0  0  0  0  0  0  0  0
   -1.4228   -2.1733    1.3722 C   0  0  0  0  0  0  0  0  0  0  0  0
   -0.4742    0.2764   -0.1365 C   0  0  0  0  0  0  0  0  0  0  0  0
    0.6246   -0.4695   -0.3433 N   0  0  0  0  0  0  0  0  0  0  0  0
   -2.0976    3.5396    0.0510 C   0  0  0  0  0  0  0  0  0  0  0  0
   -1.3501    4.4748    0.7231 C   0  0  0  0  0  0  0  0  0  0  0  0
   -1.7046    5.8061    0.7520 C   0  0  0  0  0  0  0  0  0  0  0  0
   -2.8522    6.2223    0.0832 C   0  0  0  0  0  0  0  0  0  0  0  0
   -3.2329    7.5240    0.0894 F   0  0  0  0  0  0  0  0  0  0  0  0
   -3.5911    5.2695   -0.5865 C   0  0  0  0  0  0  0  0  0  0  0  0
   -4.7090    5.6873   -1.2354 F   0  0  0  0  0  0  0  0  0  0  0  0
   -3.2491    3.9437   -0.6226 C   0  0  0  0  0  0  0  0  0  0  0  0
    5.1566   -0.4089    1.4867 H   0  0  0  0  0  0  0  0  0  0  0  0
    6.3753   -1.6603    1.8005 H   0  0  0  0  0  0  0  0  0  0  0  0
    6.8531   -0.2497    0.8302 H   0  0  0  0  0  0  0  0  0  0  0  0
    4.7480   -2.3585    0.0815 H   0  0  0  0  0  0  0  0  0  0  0  0
    6.4808   -2.4195   -0.4018 H   0  0  0  0  0  0  0  0  0  0  0  0
    6.2607   -0.4254   -1.7740 H   0  0  0  0  0  0  0  0  0  0  0  0
    5.0248   -1.6210   -2.2013 H   0  0  0  0  0  0  0  0  0  0  0  0
    4.0752    0.5541   -2.1901 H   0  0  0  0  0  0  0  0  0  0  0  0
    4.4888    0.8612   -0.4863 H   0  0  0  0  0  0  0  0  0  0  0  0
    2.9623   -1.6416   -0.8065 H   0  0  0  0  0  0  0  0  0  0  0  0
    0.8202    3.3471   -0.6070 H   0  0  0  0  0  0  0  0  0  0  0  0
   -3.5573    1.1277    0.5099 H   0  0  0  0  0  0  0  0  0  0  0  0
   -3.2733   -1.4015    0.6854 H   0  0  0  0  0  0  0  0  0  0  0  0
   -1.2161   -2.0573   -1.4849 H   0  0  0  0  0  0  0  0  0  0  0  0
   -3.0365   -1.7965   -1.5695 H   0  0  0  0  0  0  0  0  0  0  0  0
   -3.1666   -4.0815   -1.4261 H   0  0  0  0  0  0  0  0  0  0  0  0
   -1.5851   -4.2699   -0.6492 H   0  0  0  0  0  0  0  0  0  0  0  0
   -4.1516   -3.3203    0.7526 H   0  0  0  0  0  0  0  0  0  0  0  0
   -4.0302   -5.4929    0.0769 H   0  0  0  0  0  0  0  0  0  0  0  0
   -2.9268   -3.1159    2.6554 H   0  0  0  0  0  0  0  0  0  0  0  0
   -1.6225   -4.2158    2.1395 H   0  0  0  0  0  0  0  0  0  0  0  0
   -1.2281   -1.5949    2.2892 H   0  0  0  0  0  0  0  0  0  0  0  0
   -0.4647   -2.5412    0.9570 H   0  0  0  0  0  0  0  0  0  0  0  0
   -0.4528    4.1302    1.2466 H   0  0  0  0  0  0  0  0  0  0  0  0
   -1.1039    6.5498    1.2905 H   0  0  0  0  0  0  0  0  0  0  0  0
   -3.8148    3.1800   -1.1420 H   0  0  0  0  0  0  0  0  0  0  0  0
  1  2  1  0
  2  3  1  0
  3  4  1  0
  4  5  1  0
  5  6  1  0
  6  7  2  0
  7  8  1  0
  8  9  2  0
  9 10  1  0
 10 11  2  0
 11 12  1  0
 12 13  1  0
 13 14  1  0
 14 15  1  0
 15 16  1  0
 16 17  1  0
 16 18  1  0
 18 19  1  0
 12 20  1  0
 20 21  2  0
 10 22  1  0
 22 23  2  0
 23 24  1  0
 24 25  2  0
 25 26  1  0
 25 27  1  0
 27 28  1  0
 27 29  2  0
 21  6  1  0
 29 22  1  0
 20  9  1  0
 19 13  1  0
  1 30  1  0
  1 31  1  0
  1 32  1  0
  2 33  1  0
  2 34  1  0
  3 35  1  0
  3 36  1  0
  4 37  1  0
  4 38  1  0
  5 39  1  0
  8 40  1  0
 11 41  1  0
 13 42  1  0
 14 43  1  0
 14 44  1  0
 15 45  1  0
 15 46  1  0
 16 47  1  0
 17 48  1  0
 18 49  1  0
 18 50  1  0
 19 51  1  0
 19 52  1  0
 23 53  1  0
 24 54  1  0
 29 55  1  0
M  END
$$$$
[H]O[C@]1([H])C([H])([H])C([H])([H])[C@@]([H])(N([H])c2nc(N([H])C([H])([H])C([H])([H])C([H])([H])C([H])([H])[H])nc([H])c2C(=O)N([H])c2c([H])c(OC([H])([H])[H])c([H])c([H])c2OC([H])([H])[H])C([H])([H])C1([H])[H]
     RDKit          3D

 65 67  0  0  0  0  0  0  0  0999 V2000
    4.9432   -2.1011    0.2561 C   0  0  0  0  0  0  0  0  0  0  0  0
    5.5168   -2.5260   -1.0658 C   0  0  0  0  0  0  0  0  0  0  0  0
    4.7429   -2.0561   -2.2376 C   0  0  0  0  0  0  0  0  0  0  0  0
    4.6013   -0.5930   -2.4290 C   0  0  0  0  0  0  0  0  0  0  0  0
    3.9477    0.1537   -1.4168 N   0  0  0  0  0  0  0  0  0  0  0  0
    2.5719    0.0011   -1.0984 C   0  0  0  0  0  0  0  0  0  0  0  0
    1.8430   -0.8837   -1.7760 N   0  0  0  0  0  0  0  0  0  0  0  0
    0.5169   -1.0708   -1.5156 C   0  0  0  0  0  0  0  0  0  0  0  0
   -0.1272   -0.3444   -0.5316 C   0  0  0  0  0  0  0  0  0  0  0  0
   -1.5418   -0.5387   -0.2618 C   0  0  0  0  0  0  0  0  0  0  0  0
   -2.1316    0.1290    0.6156 O   0  0  0  0  0  0  0  0  0  0  0  0
   -2.2970   -1.4769   -0.9698 N   0  0  0  0  0  0  0  0  0  0  0  0
   -3.6605   -1.8092   -0.8595 C   0  0  0  0  0  0  0  0  0  0  0  0
   -4.5499   -1.2343    0.0135 C   0  0  0  0  0  0  0  0  0  0  0  0
   -5.8963   -1.5835    0.0992 C   0  0  0  0  0  0  0  0  0  0  0  0
   -6.7855   -0.9984    0.9832 O   0  0  0  0  0  0  0  0  0  0  0  0
   -6.3355    0.0131    1.8627 C   0  0  0  0  0  0  0  0  0  0  0  0
   -6.3449   -2.5667   -0.7511 C   0  0  0  0  0  0  0  0  0  0  0  0
   -5.4766   -3.1631   -1.6393 C   0  0  0  0  0  0  0  0  0  0  0  0
   -4.1475   -2.8060   -1.7111 C   0  0  0  0  0  0  0  0  0  0  0  0
   -3.3402   -3.4565   -2.6337 O   0  0  0  0  0  0  0  0  0  0  0  0
   -3.8472   -4.4485   -3.4736 C   0  0  0  0  0  0  0  0  0  0  0  0
    0.6241    0.5604    0.1593 C   0  0  0  0  0  0  0  0  0  0  0  0
    0.1150    1.3808    1.2069 N   0  0  0  0  0  0  0  0  0  0  0  0
    1.0830    2.3042    1.8279 C   0  0  1  0  0  0  0  0  0  0  0  0
    1.6404    3.2920    0.8545 C   0  0  0  0  0  0  0  0  0  0  0  0
    1.2998    4.6934    1.3158 C   0  0  0  0  0  0  0  0  0  0  0  0
    1.7684    4.9444    2.7275 C   0  0  2  0  0  0  0  0  0  0  0  0
    3.1661    5.1422    2.6663 O   0  0  0  0  0  0  0  0  0  0  0  0
    1.4445    3.8315    3.6744 C   0  0  0  0  0  0  0  0  0  0  0  0
    0.4160    2.9340    3.0190 C   0  0  0  0  0  0  0  0  0  0  0  0
    1.9556    0.6991   -0.1534 N   0  0  0  0  0  0  0  0  0  0  0  0
    3.8880   -2.4278    0.3254 H   0  0  0  0  0  0  0  0  0  0  0  0
    5.1351   -1.0528    0.4789 H   0  0  0  0  0  0  0  0  0  0  0  0
    5.4661   -2.6662    1.0937 H   0  0  0  0  0  0  0  0  0  0  0  0
    5.5061   -3.6568   -1.0997 H   0  0  0  0  0  0  0  0  0  0  0  0
    6.6020   -2.2753   -1.1442 H   0  0  0  0  0  0  0  0  0  0  0  0
    5.2336   -2.4655   -3.1712 H   0  0  0  0  0  0  0  0  0  0  0  0
    3.7387   -2.5390   -2.2247 H   0  0  0  0  0  0  0  0  0  0  0  0
    5.6080   -0.1042   -2.6248 H   0  0  0  0  0  0  0  0  0  0  0  0
    3.9678   -0.4661   -3.3679 H   0  0  0  0  0  0  0  0  0  0  0  0
    4.4755    0.8570   -0.8602 H   0  0  0  0  0  0  0  0  0  0  0  0
   -0.0100   -1.7878   -2.0871 H   0  0  0  0  0  0  0  0  0  0  0  0
   -1.7673   -2.0303   -1.7079 H   0  0  0  0  0  0  0  0  0  0  0  0
   -4.2675   -0.4610    0.7035 H   0  0  0  0  0  0  0  0  0  0  0  0
   -5.3930   -0.2771    2.3879 H   0  0  0  0  0  0  0  0  0  0  0  0
   -6.2819    1.0126    1.3988 H   0  0  0  0  0  0  0  0  0  0  0  0
   -7.0806    0.1307    2.7062 H   0  0  0  0  0  0  0  0  0  0  0  0
   -7.4011   -2.8505   -0.6942 H   0  0  0  0  0  0  0  0  0  0  0  0
   -5.8656   -3.9466   -2.3078 H   0  0  0  0  0  0  0  0  0  0  0  0
   -3.0607   -4.9916   -4.0367 H   0  0  0  0  0  0  0  0  0  0  0  0
   -4.4194   -5.2353   -2.9293 H   0  0  0  0  0  0  0  0  0  0  0  0
   -4.4997   -3.9765   -4.2271 H   0  0  0  0  0  0  0  0  0  0  0  0
   -0.8214    1.4197    1.5875 H   0  0  0  0  0  0  0  0  0  0  0  0
    1.9446    1.7160    2.2250 H   0  0  0  0  0  0  0  0  0  0  0  0
    1.1869    3.1647   -0.1518 H   0  0  0  0  0  0  0  0  0  0  0  0
    2.7556    3.2584    0.7689 H   0  0  0  0  0  0  0  0  0  0  0  0
    0.2251    4.8733    1.2188 H   0  0  0  0  0  0  0  0  0  0  0  0
    1.8314    5.3807    0.6179 H   0  0  0  0  0  0  0  0  0  0  0  0
    1.2946    5.8648    3.1284 H   0  0  0  0  0  0  0  0  0  0  0  0
    3.2997    6.0660    2.3300 H   0  0  0  0  0  0  0  0  0  0  0  0
    2.3299    3.1959    3.8938 H   0  0  0  0  0  0  0  0  0  0  0  0
    0.9669    4.1974    4.6237 H   0  0  0  0  0  0  0  0  0  0  0  0
   -0.4193    3.5572    2.6904 H   0  0  0  0  0  0  0  0  0  0  0  0
    0.1171    2.0937    3.6984 H   0  0  0  0  0  0  0  0  0  0  0  0
  1  2  1  0
  2  3  1  0
  3  4  1  0
  4  5  1  0
  5  6  1  0
  6  7  2  0
  7  8  1  0
  8  9  2  0
  9 10  1  0
 10 11  2  0
 10 12  1  0
 12 13  1  0
 13 14  2  0
 14 15  1  0
 15 16  1  0
 16 17  1  0
 15 18  2  0
 18 19  1  0
 19 20  2  0
 20 21  1  0
 21 22  1  0
  9 23  1  0
 23 24  1  0
 24 25  1  0
 25 26  1  0
 26 27  1  0
 27 28  1  0
 28 29  1  0
 28 30  1  0
 30 31  1  0
 23 32  2  0
 32  6  1  0
 20 13  1  0
 31 25  1  0
  1 33  1  0
  1 34  1  0
  1 35  1  0
  2 36  1  0
  2 37  1  0
  3 38  1  0
  3 39  1  0
  4 40  1  0
  4 41  1  0
  5 42  1  0
  8 43  1  0
 12 44  1  0
 14 45  1  0
 17 46  1  0
 17 47  1  0
 17 48  1  0
 18 49  1  0
 19 50  1  0
 22 51  1  0
 22 52  1  0
 22 53  1  0
 24 54  1  0
 25 55  1  1
 26 56  1  0
 26 57  1  0
 27 58  1  0
 27 59  1  0
 28 60  1  1
 29 61  1  0
 30 62  1  0
 30 63  1  0
 31 64  1  0
 31 65  1  0
M  END
$$$$
[H]OC([H])([H])c1c([H])c([H])c(-c2c([H])nc(N([H])[H])c(C(=O)N([H])[C@@]3([H])C([H])([H])C([H])([H])C([H])([H])[C@]3([H])OC([H])([H])c3c([H])c([H])c(C([H])([H])[H])c(C([H])([H])[H])c3[H])c2[H])c([H])c1OC([H])([H])[H]
     RDKit          3D

 68 71  0  0  0  0  0  0  0  0999 V2000
   -8.1467   -0.7623    2.7982 C   0  0  0  0  0  0  0  0  0  0  0  0
   -8.1673   -0.8748    1.4118 O   0  0  0  0  0  0  0  0  0  0  0  0
   -7.1485   -0.4907    0.5503 C   0  0  0  0  0  0  0  0  0  0  0  0
   -5.9545    0.0680    0.9794 C   0  0  0  0  0  0  0  0  0  0  0  0
   -4.9619    0.4375    0.0520 C   0  0  0  0  0  0  0  0  0  0  0  0
   -5.2130    0.2304   -1.2640 C   0  0  0  0  0  0  0  0  0  0  0  0
   -6.4123   -0.3317   -1.6786 C   0  0  0  0  0  0  0  0  0  0  0  0
   -7.3961   -0.7017   -0.7965 C   0  0  0  0  0  0  0  0  0  0  0  0
   -8.6575   -1.2963   -1.2831 C   0  0  0  0  0  0  0  0  0  0  0  0
   -8.6445   -1.4136   -2.6601 O   0  0  0  0  0  0  0  0  0  0  0  0
   -3.7051    0.9856    0.5842 C   0  0  0  0  0  0  0  0  0  0  0  0
   -3.7050    1.7302    1.7749 C   0  0  0  0  0  0  0  0  0  0  0  0
   -2.5426    2.1832    2.2500 N   0  0  0  0  0  0  0  0  0  0  0  0
   -1.3740    1.9451    1.6221 C   0  0  0  0  0  0  0  0  0  0  0  0
   -0.1755    2.5142    2.2117 N   0  0  0  0  0  0  0  0  0  0  0  0
   -1.3294    1.2182    0.4525 C   0  0  0  0  0  0  0  0  0  0  0  0
   -2.5172    0.7441   -0.0557 C   0  0  0  0  0  0  0  0  0  0  0  0
   -0.0155    0.9223   -0.1371 C   0  0  0  0  0  0  0  0  0  0  0  0
    0.9728    1.2820    0.5415 O   0  0  0  0  0  0  0  0  0  0  0  0
    0.1584    0.2856   -1.3632 N   0  0  0  0  0  0  0  0  0  0  0  0
    1.2869   -0.1367   -2.1137 C   0  0  1  0  0  0  0  0  0  0  0  0
    0.9272   -0.1111   -3.5966 C   0  0  0  0  0  0  0  0  0  0  0  0
    1.9234    0.9272   -4.1719 C   0  0  0  0  0  0  0  0  0  0  0  0
    3.1751    0.4651   -3.4312 C   0  0  0  0  0  0  0  0  0  0  0  0
    2.5756    0.5647   -1.9807 C   0  0  2  0  0  0  0  0  0  0  0  0
    3.5189   -0.1211   -1.1716 O   0  0  0  0  0  0  0  0  0  0  0  0
    4.2773    0.7909   -0.4993 C   0  0  0  0  0  0  0  0  0  0  0  0
    5.2817    0.1736    0.4063 C   0  0  0  0  0  0  0  0  0  0  0  0
    5.6745    0.8915    1.4827 C   0  0  0  0  0  0  0  0  0  0  0  0
    6.6229    0.4186    2.4202 C   0  0  0  0  0  0  0  0  0  0  0  0
    7.1472   -0.8198    2.2054 C   0  0  0  0  0  0  0  0  0  0  0  0
    8.1511   -1.3437    3.1754 C   0  0  0  0  0  0  0  0  0  0  0  0
    6.7555   -1.5764    1.0972 C   0  0  0  0  0  0  0  0  0  0  0  0
    7.3790   -2.8982    0.9296 C   0  0  0  0  0  0  0  0  0  0  0  0
    5.8183   -1.0740    0.1969 C   0  0  0  0  0  0  0  0  0  0  0  0
   -7.1129   -0.7451    3.1755 H   0  0  0  0  0  0  0  0  0  0  0  0
   -8.6844   -1.6369    3.2543 H   0  0  0  0  0  0  0  0  0  0  0  0
   -8.6895    0.1552    3.1423 H   0  0  0  0  0  0  0  0  0  0  0  0
   -5.7749    0.2234    2.0321 H   0  0  0  0  0  0  0  0  0  0  0  0
   -4.4361    0.5240   -1.9708 H   0  0  0  0  0  0  0  0  0  0  0  0
   -6.5506   -0.4753   -2.7441 H   0  0  0  0  0  0  0  0  0  0  0  0
   -9.5130   -0.6435   -0.9785 H   0  0  0  0  0  0  0  0  0  0  0  0
   -8.8582   -2.2896   -0.7853 H   0  0  0  0  0  0  0  0  0  0  0  0
   -8.6666   -0.5675   -3.1449 H   0  0  0  0  0  0  0  0  0  0  0  0
   -4.6536    1.9188    2.2804 H   0  0  0  0  0  0  0  0  0  0  0  0
    0.2549    3.3864    1.8290 H   0  0  0  0  0  0  0  0  0  0  0  0
    0.2228    2.0169    3.0269 H   0  0  0  0  0  0  0  0  0  0  0  0
   -2.5273    0.1848   -0.9511 H   0  0  0  0  0  0  0  0  0  0  0  0
   -0.7870    0.0470   -1.8570 H   0  0  0  0  0  0  0  0  0  0  0  0
    1.4905   -1.2328   -1.8163 H   0  0  0  0  0  0  0  0  0  0  0  0
   -0.0642    0.4059   -3.7350 H   0  0  0  0  0  0  0  0  0  0  0  0
    1.0309   -1.0688   -4.0782 H   0  0  0  0  0  0  0  0  0  0  0  0
    1.9893    0.9144   -5.2436 H   0  0  0  0  0  0  0  0  0  0  0  0
    1.6710    1.9269   -3.7678 H   0  0  0  0  0  0  0  0  0  0  0  0
    4.0540    1.0591   -3.5483 H   0  0  0  0  0  0  0  0  0  0  0  0
    3.2527   -0.6227   -3.6638 H   0  0  0  0  0  0  0  0  0  0  0  0
    2.5480    1.6290   -1.7912 H   0  0  0  0  0  0  0  0  0  0  0  0
    4.9229    1.2914   -1.3004 H   0  0  0  0  0  0  0  0  0  0  0  0
    3.7672    1.6274   -0.0201 H   0  0  0  0  0  0  0  0  0  0  0  0
    5.2914    1.8967    1.7143 H   0  0  0  0  0  0  0  0  0  0  0  0
    6.9164    1.0173    3.2667 H   0  0  0  0  0  0  0  0  0  0  0  0
    8.5897   -2.3054    2.8813 H   0  0  0  0  0  0  0  0  0  0  0  0
    7.6737   -1.5005    4.1867 H   0  0  0  0  0  0  0  0  0  0  0  0
    8.9389   -0.5826    3.3162 H   0  0  0  0  0  0  0  0  0  0  0  0
    7.1042   -3.5470    1.7758 H   0  0  0  0  0  0  0  0  0  0  0  0
    8.4829   -2.7709    0.9461 H   0  0  0  0  0  0  0  0  0  0  0  0
    7.0300   -3.4327    0.0125 H   0  0  0  0  0  0  0  0  0  0  0  0
    5.5078   -1.6291   -0.6507 H   0  0  0  0  0  0  0  0  0  0  0  0
  1  2  1  0
  2  3  1  0
  3  4  2  0
  4  5  1  0
  5  6  2  0
  6  7  1  0
  7  8  2  0
  8  9  1  0
  9 10  1  0
  5 11  1  0
 11 12  2  0
 12 13  1  0
 13 14  2  0
 14 15  1  0
 14 16  1  0
 16 17  2  0
 16 18  1  0
 18 19  2  0
 18 20  1  0
 20 21  1  0
 21 22  1  0
 22 23  1  0
 23 24  1  0
 24 25  1  0
 25 26  1  0
 26 27  1  0
 27 28  1  0
 28 29  2  0
 29 30  1  0
 30 31  2  0
 31 32  1  0
 31 33  1  0
 33 34  1  0
 33 35  2  0
  8  3  1  0
 17 11  1  0
 25 21  1  0
 35 28  1  0
  1 36  1  0
  1 37  1  0
  1 38  1  0
  4 39  1  0
  6 40  1  0
  7 41  1  0
  9 42  1  0
  9 43  1  0
 10 44  1  0
 12 45  1  0
 15 46  1  0
 15 47  1  0
 17 48  1  0
 20 49  1  0
 21 50  1  1
 22 51  1  0
 22 52  1  0
 23 53  1  0
 23 54  1  0
 24 55  1  0
 24 56  1  0
 25 57  1  1
 27 58  1  0
 27 59  1  0
 29 60  1  0
 30 61  1  0
 32 62  1  0
 32 63  1  0
 32 64  1  0
 34 65  1  0
 34 66  1  0
 34 67  1  0
 35 68  1  0
M  END
$$$$
[H]O[C@]1([H])C([H])([H])C([H])([H])[C@@]([H])(N([H])c2nc(N([H])C([H])([H])C([H])([H])C([H])([H])C([H])([H])[H])nc([H])c2-c2nc([H])nc(N([H])c3c([H])c([H])c(OC([H])([H])[H])c([H])c3[H])c2[H])C([H])([H])C1([H])[H]
     RDKit          3D

 67 70  0  0  0  0  0  0  0  0999 V2000
   -6.5789   -4.2535    0.1384 C   0  0  0  0  0  0  0  0  0  0  0  0
   -5.1489   -4.1198    0.6326 C   0  0  0  0  0  0  0  0  0  0  0  0
   -4.1985   -4.2153   -0.5694 C   0  0  0  0  0  0  0  0  0  0  0  0
   -4.5046   -3.1189   -1.5320 C   0  0  0  0  0  0  0  0  0  0  0  0
   -4.3782   -1.7946   -1.0231 N   0  0  0  0  0  0  0  0  0  0  0  0
   -3.1285   -1.2867   -0.6099 C   0  0  0  0  0  0  0  0  0  0  0  0
   -2.0430   -2.0644   -0.7056 N   0  0  0  0  0  0  0  0  0  0  0  0
   -0.8397   -1.6154   -0.3218 C   0  0  0  0  0  0  0  0  0  0  0  0
   -0.6300   -0.3274    0.1964 C   0  0  0  0  0  0  0  0  0  0  0  0
   -1.7453    0.4456    0.2840 C   0  0  0  0  0  0  0  0  0  0  0  0
   -1.6792    1.7723    0.7526 N   0  0  0  0  0  0  0  0  0  0  0  0
   -2.9380    2.5432    0.8341 C   0  0  1  0  0  0  0  0  0  0  0  0
   -2.6350    3.9087    1.3705 C   0  0  0  0  0  0  0  0  0  0  0  0
   -1.9077    4.7355    0.3555 C   0  0  0  0  0  0  0  0  0  0  0  0
   -2.8117    4.9930   -0.8134 C   0  0  2  0  0  0  0  0  0  0  0  0
   -3.3136    6.2945   -0.7076 O   0  0  0  0  0  0  0  0  0  0  0  0
   -3.9591    4.0371   -0.8195 C   0  0  0  0  0  0  0  0  0  0  0  0
   -3.5548    2.6047   -0.5279 C   0  0  0  0  0  0  0  0  0  0  0  0
   -2.9536   -0.0640   -0.1224 N   0  0  0  0  0  0  0  0  0  0  0  0
    0.7204    0.0265    0.5451 C   0  0  0  0  0  0  0  0  0  0  0  0
    1.8296   -0.6811    0.0991 C   0  0  0  0  0  0  0  0  0  0  0  0
    3.1433   -0.2996    0.4306 C   0  0  0  0  0  0  0  0  0  0  0  0
    4.2272   -1.0531   -0.0689 N   0  0  0  0  0  0  0  0  0  0  0  0
    5.5901   -0.8935    0.1400 C   0  0  0  0  0  0  0  0  0  0  0  0
    6.1959   -0.1433    1.0993 C   0  0  0  0  0  0  0  0  0  0  0  0
    7.5915   -0.0246    1.2201 C   0  0  0  0  0  0  0  0  0  0  0  0
    8.3939   -0.6915    0.3364 C   0  0  0  0  0  0  0  0  0  0  0  0
    9.7710   -0.6122    0.4067 O   0  0  0  0  0  0  0  0  0  0  0  0
   10.5795   -1.3015   -0.5060 C   0  0  0  0  0  0  0  0  0  0  0  0
    7.8214   -1.4633   -0.6506 C   0  0  0  0  0  0  0  0  0  0  0  0
    6.4518   -1.5644   -0.7497 C   0  0  0  0  0  0  0  0  0  0  0  0
    3.3029    0.7745    1.1950 N   0  0  0  0  0  0  0  0  0  0  0  0
    2.2547    1.4673    1.6329 C   0  0  0  0  0  0  0  0  0  0  0  0
    1.0161    1.0826    1.3030 N   0  0  0  0  0  0  0  0  0  0  0  0
   -7.2166   -4.8252    0.8321 H   0  0  0  0  0  0  0  0  0  0  0  0
   -7.0434   -3.2736   -0.0221 H   0  0  0  0  0  0  0  0  0  0  0  0
   -6.5776   -4.7770   -0.8458 H   0  0  0  0  0  0  0  0  0  0  0  0
   -4.8880   -4.9039    1.3664 H   0  0  0  0  0  0  0  0  0  0  0  0
   -5.0060   -3.0914    1.0689 H   0  0  0  0  0  0  0  0  0  0  0  0
   -3.1878   -4.2731   -0.1868 H   0  0  0  0  0  0  0  0  0  0  0  0
   -4.4334   -5.2130   -1.0209 H   0  0  0  0  0  0  0  0  0  0  0  0
   -3.7951   -3.2395   -2.3994 H   0  0  0  0  0  0  0  0  0  0  0  0
   -5.5015   -3.3251   -1.9832 H   0  0  0  0  0  0  0  0  0  0  0  0
   -5.2201   -1.1877   -0.9533 H   0  0  0  0  0  0  0  0  0  0  0  0
   -0.0368   -2.3216   -0.4278 H   0  0  0  0  0  0  0  0  0  0  0  0
   -0.8496    2.2709    1.0358 H   0  0  0  0  0  0  0  0  0  0  0  0
   -3.6105    1.9687    1.5026 H   0  0  0  0  0  0  0  0  0  0  0  0
   -3.6181    4.3753    1.6433 H   0  0  0  0  0  0  0  0  0  0  0  0
   -2.0071    3.8330    2.2916 H   0  0  0  0  0  0  0  0  0  0  0  0
   -1.5769    5.6937    0.8488 H   0  0  0  0  0  0  0  0  0  0  0  0
   -1.0164    4.1474    0.0215 H   0  0  0  0  0  0  0  0  0  0  0  0
   -2.2305    4.9373   -1.7637 H   0  0  0  0  0  0  0  0  0  0  0  0
   -4.0893    6.3025   -0.0725 H   0  0  0  0  0  0  0  0  0  0  0  0
   -4.4094    4.0430   -1.8389 H   0  0  0  0  0  0  0  0  0  0  0  0
   -4.7515    4.3400   -0.1035 H   0  0  0  0  0  0  0  0  0  0  0  0
   -2.8658    2.2464   -1.3144 H   0  0  0  0  0  0  0  0  0  0  0  0
   -4.4698    1.9850   -0.5386 H   0  0  0  0  0  0  0  0  0  0  0  0
    1.6547   -1.5342   -0.5240 H   0  0  0  0  0  0  0  0  0  0  0  0
    3.9083   -1.8752   -0.7062 H   0  0  0  0  0  0  0  0  0  0  0  0
    5.5792    0.3822    1.8170 H   0  0  0  0  0  0  0  0  0  0  0  0
    7.9963    0.5943    2.0129 H   0  0  0  0  0  0  0  0  0  0  0  0
   11.6445   -1.0758   -0.3708 H   0  0  0  0  0  0  0  0  0  0  0  0
   10.3184   -1.0493   -1.5656 H   0  0  0  0  0  0  0  0  0  0  0  0
   10.4357   -2.4162   -0.4063 H   0  0  0  0  0  0  0  0  0  0  0  0
    8.4573   -1.9935   -1.3528 H   0  0  0  0  0  0  0  0  0  0  0  0
    6.0668   -2.1844   -1.5447 H   0  0  0  0  0  0  0  0  0  0  0  0
    2.3991    2.3426    2.2562 H   0  0  0  0  0  0  0  0  0  0  0  0
  1  2  1  0
  2  3  1  0
  3  4  1  0
  4  5  1  0
  5  6  1  0
  6  7  2  0
  7  8  1  0
  8  9  2  0
  9 10  1  0
 10 11  1  0
 11 12  1  0
 12 13  1  0
 13 14  1  0
 14 15  1  0
 15 16  1  0
 15 17  1  0
 17 18  1  0
 10 19  2  0
  9 20  1  0
 20 21  2  0
 21 22  1  0
 22 23  1  0
 23 24  1  0
 24 25  2  0
 25 26  1  0
 26 27  2  0
 27 28  1  0
 28 29  1  0
 27 30  1  0
 30 31  2  0
 22 32  2  0
 32 33  1  0
 33 34  2  0
 19  6  1  0
 34 20  1  0
 18 12  1  0
 31 24  1  0
  1 35  1  0
  1 36  1  0
  1 37  1  0
  2 38  1  0
  2 39  1  0
  3 40  1  0
  3 41  1  0
  4 42  1  0
  4 43  1  0
  5 44  1  0
  8 45  1  0
 11 46  1  0
 12 47  1  1
 13 48  1  0
 13 49  1  0
 14 50  1  0
 14 51  1  0
 15 52  1  6
 16 53  1  0
 17 54  1  0
 17 55  1  0
 18 56  1  0
 18 57  1  0
 21 58  1  0
 23 59  1  0
 25 60  1  0
 26 61  1  0
 29 62  1  0
 29 63  1  0
 29 64  1  0
 30 65  1  0
 31 66  1  0
 33 67  1  0
M  END
$$$$
[H]c1nc(N([H])[H])c2c(-c3c([H])c([H])c(N([H])C(=O)c4c([H])n(C([H])(C([H])([H])[H])C([H])([H])[H])c(=O)n(-c5c([H])c([H])c([H])c([H])c5[H])c4=O)c([H])c3C([H])([H])[H])c([H])c(C3([H])C([H])([H])C([H])([H])N(C(=O)C([H])(C([H])([H])[H])C([H])([H])[H])C([H])([H])C3([H])[H])n2n1
     RDKit          3D

 88 93  0  0  0  0  0  0  0  0999 V2000
   10.6863    1.0805    2.2528 C   0  0  0  0  0  0  0  0  0  0  0  0
   10.4961    0.4282    0.8990 C   0  0  0  0  0  0  0  0  0  0  0  0
   11.8692    0.1556    0.3160 C   0  0  0  0  0  0  0  0  0  0  0  0
    9.6804   -0.7972    0.9660 C   0  0  0  0  0  0  0  0  0  0  0  0
   10.2692   -1.8899    0.7684 O   0  0  0  0  0  0  0  0  0  0  0  0
    8.3008   -0.7861    1.2386 N   0  0  0  0  0  0  0  0  0  0  0  0
    7.5662   -2.0370    1.3126 C   0  0  0  0  0  0  0  0  0  0  0  0
    6.2054   -1.9553    0.7115 C   0  0  0  0  0  0  0  0  0  0  0  0
    5.5411   -0.6140    0.8221 C   0  0  0  0  0  0  0  0  0  0  0  0
    6.4711    0.4904    0.4440 C   0  0  0  0  0  0  0  0  0  0  0  0
    7.6328    0.4941    1.4273 C   0  0  0  0  0  0  0  0  0  0  0  0
    4.2911   -0.5913   -0.0151 C   0  0  0  0  0  0  0  0  0  0  0  0
    2.9900   -0.5168    0.3885 C   0  0  0  0  0  0  0  0  0  0  0  0
    2.1309   -0.5130   -0.7321 C   0  0  0  0  0  0  0  0  0  0  0  0
    0.6954   -0.3824   -0.6569 C   0  0  0  0  0  0  0  0  0  0  0  0
    0.0074    0.6569   -1.2188 C   0  0  0  0  0  0  0  0  0  0  0  0
   -1.3846    0.7702   -1.0716 C   0  0  0  0  0  0  0  0  0  0  0  0
   -2.0852   -0.1548   -0.3637 C   0  0  0  0  0  0  0  0  0  0  0  0
   -3.4940   -0.1207   -0.1377 N   0  0  0  0  0  0  0  0  0  0  0  0
   -4.2956    1.0138   -0.1263 C   0  0  0  0  0  0  0  0  0  0  0  0
   -3.7312    2.1559   -0.3119 O   0  0  0  0  0  0  0  0  0  0  0  0
   -5.7302    1.0688    0.0785 C   0  0  0  0  0  0  0  0  0  0  0  0
   -6.3141    2.2645    0.5349 C   0  0  0  0  0  0  0  0  0  0  0  0
   -7.6459    2.3539    0.7626 N   0  0  0  0  0  0  0  0  0  0  0  0
   -8.1994    3.6037    1.2222 C   0  0  0  0  0  0  0  0  0  0  0  0
   -9.3613    3.4257    2.1594 C   0  0  0  0  0  0  0  0  0  0  0  0
   -8.6825    4.4257    0.0216 C   0  0  0  0  0  0  0  0  0  0  0  0
   -8.3775    1.2748    0.5395 C   0  0  0  0  0  0  0  0  0  0  0  0
   -9.6350    1.2880    0.7314 O   0  0  0  0  0  0  0  0  0  0  0  0
   -7.8619    0.1129    0.1037 N   0  0  0  0  0  0  0  0  0  0  0  0
   -8.6965   -1.0089   -0.1185 C   0  0  0  0  0  0  0  0  0  0  0  0
   -8.7452   -1.6707   -1.3301 C   0  0  0  0  0  0  0  0  0  0  0  0
   -9.5919   -2.7522   -1.4364 C   0  0  0  0  0  0  0  0  0  0  0  0
  -10.3749   -3.1773   -0.3802 C   0  0  0  0  0  0  0  0  0  0  0  0
  -10.3067   -2.5008    0.8131 C   0  0  0  0  0  0  0  0  0  0  0  0
   -9.4741   -1.4206    0.9522 C   0  0  0  0  0  0  0  0  0  0  0  0
   -6.5396   -0.0159   -0.1350 C   0  0  0  0  0  0  0  0  0  0  0  0
   -6.1233   -1.1416   -0.5490 O   0  0  0  0  0  0  0  0  0  0  0  0
   -1.3987   -1.2151    0.2125 C   0  0  0  0  0  0  0  0  0  0  0  0
   -0.0248   -1.3104    0.0567 C   0  0  0  0  0  0  0  0  0  0  0  0
    0.6828   -2.4394    0.6747 C   0  0  0  0  0  0  0  0  0  0  0  0
    2.9752   -0.5903   -1.8158 C   0  0  0  0  0  0  0  0  0  0  0  0
    2.6961   -0.6406   -3.1670 C   0  0  0  0  0  0  0  0  0  0  0  0
    1.3684   -0.6313   -3.6997 N   0  0  0  0  0  0  0  0  0  0  0  0
    3.7539   -0.7325   -4.0150 N   0  0  0  0  0  0  0  0  0  0  0  0
    5.0105   -0.7733   -3.5509 C   0  0  0  0  0  0  0  0  0  0  0  0
    5.2479   -0.7242   -2.2315 N   0  0  0  0  0  0  0  0  0  0  0  0
    4.2535   -0.6353   -1.3772 N   0  0  0  0  0  0  0  0  0  0  0  0
    9.9334    0.6640    2.9574 H   0  0  0  0  0  0  0  0  0  0  0  0
   10.5155    2.1742    2.2377 H   0  0  0  0  0  0  0  0  0  0  0  0
   11.7306    0.9397    2.6272 H   0  0  0  0  0  0  0  0  0  0  0  0
   10.0395    1.2017    0.2325 H   0  0  0  0  0  0  0  0  0  0  0  0
   12.2795    1.1519    0.0231 H   0  0  0  0  0  0  0  0  0  0  0  0
   11.7800   -0.4633   -0.5997 H   0  0  0  0  0  0  0  0  0  0  0  0
   12.5514   -0.2784    1.0503 H   0  0  0  0  0  0  0  0  0  0  0  0
    8.1681   -2.8255    0.8097 H   0  0  0  0  0  0  0  0  0  0  0  0
    7.4480   -2.2803    2.4012 H   0  0  0  0  0  0  0  0  0  0  0  0
    5.4889   -2.6935    1.1774 H   0  0  0  0  0  0  0  0  0  0  0  0
    6.2382   -2.2312   -0.3740 H   0  0  0  0  0  0  0  0  0  0  0  0
    5.2167   -0.4907    1.8819 H   0  0  0  0  0  0  0  0  0  0  0  0
    6.8637    0.3917   -0.5779 H   0  0  0  0  0  0  0  0  0  0  0  0
    5.9378    1.4509    0.4981 H   0  0  0  0  0  0  0  0  0  0  0  0
    7.1835    0.4649    2.4444 H   0  0  0  0  0  0  0  0  0  0  0  0
    8.2845    1.3614    1.2581 H   0  0  0  0  0  0  0  0  0  0  0  0
    2.6634   -0.4678    1.4126 H   0  0  0  0  0  0  0  0  0  0  0  0
    0.4898    1.4414   -1.7827 H   0  0  0  0  0  0  0  0  0  0  0  0
   -1.8771    1.5943   -1.5432 H   0  0  0  0  0  0  0  0  0  0  0  0
   -3.9889   -1.0467    0.0575 H   0  0  0  0  0  0  0  0  0  0  0  0
   -5.6606    3.1158    0.6999 H   0  0  0  0  0  0  0  0  0  0  0  0
   -7.4310    4.2009    1.7686 H   0  0  0  0  0  0  0  0  0  0  0  0
   -9.3255    2.5293    2.7845 H   0  0  0  0  0  0  0  0  0  0  0  0
  -10.3506    3.4089    1.6145 H   0  0  0  0  0  0  0  0  0  0  0  0
   -9.4674    4.3356    2.8231 H   0  0  0  0  0  0  0  0  0  0  0  0
   -9.2924    3.7868   -0.6490 H   0  0  0  0  0  0  0  0  0  0  0  0
   -9.3220    5.2671    0.3300 H   0  0  0  0  0  0  0  0  0  0  0  0
   -7.7643    4.7647   -0.5021 H   0  0  0  0  0  0  0  0  0  0  0  0
   -8.1343   -1.3327   -2.1416 H   0  0  0  0  0  0  0  0  0  0  0  0
   -9.6672   -3.3165   -2.3813 H   0  0  0  0  0  0  0  0  0  0  0  0
  -11.0407   -4.0467   -0.5031 H   0  0  0  0  0  0  0  0  0  0  0  0
  -10.9054   -2.7940    1.6828 H   0  0  0  0  0  0  0  0  0  0  0  0
   -9.4343   -0.9001    1.8965 H   0  0  0  0  0  0  0  0  0  0  0  0
   -1.9624   -1.9439    0.7727 H   0  0  0  0  0  0  0  0  0  0  0  0
    0.9344   -2.2223    1.7287 H   0  0  0  0  0  0  0  0  0  0  0  0
   -0.0296   -3.3035    0.7190 H   0  0  0  0  0  0  0  0  0  0  0  0
    1.5507   -2.7840    0.0810 H   0  0  0  0  0  0  0  0  0  0  0  0
    0.7806   -1.4816   -3.5816 H   0  0  0  0  0  0  0  0  0  0  0  0
    0.9535    0.1809   -4.2012 H   0  0  0  0  0  0  0  0  0  0  0  0
    5.8746   -0.8477   -4.2248 H   0  0  0  0  0  0  0  0  0  0  0  0
  1  2  1  0
  2  3  1  0
  2  4  1  0
  4  5  2  0
  4  6  1  0
  6  7  1  0
  7  8  1  0
  8  9  1  0
  9 10  1  0
 10 11  1  0
  9 12  1  0
 12 13  2  0
 13 14  1  0
 14 15  1  0
 15 16  2  0
 16 17  1  0
 17 18  2  0
 18 19  1  0
 19 20  1  0
 20 21  2  0
 20 22  1  0
 22 23  2  0
 23 24  1  0
 24 25  1  0
 25 26  1  0
 25 27  1  0
 24 28  1  0
 28 29  2  0
 28 30  1  0
 30 31  1  0
 31 32  2  0
 32 33  1  0
 33 34  2  0
 34 35  1  0
 35 36  2  0
 30 37  1  0
 37 38  2  0
 18 39  1  0
 39 40  2  0
 40 41  1  0
 14 42  2  0
 42 43  1  0
 43 44  1  0
 43 45  2  0
 45 46  1  0
 46 47  2  0
 47 48  1  0
 11  6  1  0
 48 12  1  0
 40 15  1  0
 48 42  1  0
 37 22  1  0
 36 31  1  0
  1 49  1  0
  1 50  1  0
  1 51  1  0
  2 52  1  0
  3 53  1  0
  3 54  1  0
  3 55  1  0
  7 56  1  0
  7 57  1  0
  8 58  1  0
  8 59  1  0
  9 60  1  0
 10 61  1  0
 10 62  1  0
 11 63  1  0
 11 64  1  0
 13 65  1  0
 16 66  1  0
 17 67  1  0
 19 68  1  0
 23 69  1  0
 25 70  1  0
 26 71  1  0
 26 72  1  0
 26 73  1  0
 27 74  1  0
 27 75  1  0
 27 76  1  0
 32 77  1  0
 33 78  1  0
 34 79  1  0
 35 80  1  0
 36 81  1  0
 39 82  1  0
 41 83  1  0
 41 84  1  0
 41 85  1  0
 44 86  1  0
 44 87  1  0
 46 88  1  0
M  END
$$$$
[H]OC1([H])C([H])([H])C([H])([H])C([H])(N([H])c2nc(N([H])C([H])([H])C([H])([H])C([H])([H])C([H])([H])[H])nc([H])c2-c2oc(C([H])([H])N3C([H])([H])C(F)(F)C3([H])[H])c([H])c2[H])C([H])([H])C1([H])[H]
     RDKit          3D

 62 65  0  0  0  0  0  0  0  0999 V2000
    6.2618   -2.1564   -0.7625 C   0  0  0  0  0  0  0  0  0  0  0  0
    6.5596   -0.8557   -0.0882 C   0  0  0  0  0  0  0  0  0  0  0  0
    5.6969   -0.5287    1.0634 C   0  0  0  0  0  0  0  0  0  0  0  0
    4.2441   -0.3789    0.8428 C   0  0  0  0  0  0  0  0  0  0  0  0
    3.4933   -1.4823    0.3983 N   0  0  0  0  0  0  0  0  0  0  0  0
    2.0927   -1.2881    0.1132 C   0  0  0  0  0  0  0  0  0  0  0  0
    1.3308   -2.3046   -0.3162 N   0  0  0  0  0  0  0  0  0  0  0  0
    0.0307   -2.1440   -0.5815 C   0  0  0  0  0  0  0  0  0  0  0  0
   -0.6130   -0.8881   -0.4229 C   0  0  0  0  0  0  0  0  0  0  0  0
   -2.0068   -0.7810   -0.7243 C   0  0  0  0  0  0  0  0  0  0  0  0
   -2.8697    0.2110   -1.0196 C   0  0  0  0  0  0  0  0  0  0  0  0
   -4.1285   -0.3199   -1.2288 C   0  0  0  0  0  0  0  0  0  0  0  0
   -3.9980   -1.6717   -1.0515 C   0  0  0  0  0  0  0  0  0  0  0  0
   -5.1261   -2.6369   -1.1855 C   0  0  0  0  0  0  0  0  0  0  0  0
   -5.7572   -2.7876    0.0936 N   0  0  0  0  0  0  0  0  0  0  0  0
   -6.8781   -3.7112    0.0843 C   0  0  0  0  0  0  0  0  0  0  0  0
   -6.4377   -4.1444    1.4817 C   0  0  0  0  0  0  0  0  0  0  0  0
   -6.9594   -3.3202    2.4549 F   0  0  0  0  0  0  0  0  0  0  0  0
   -6.5379   -5.4859    1.7265 F   0  0  0  0  0  0  0  0  0  0  0  0
   -5.0769   -3.7072    0.9842 C   0  0  0  0  0  0  0  0  0  0  0  0
   -2.7773   -1.8873   -0.7670 O   0  0  0  0  0  0  0  0  0  0  0  0
    0.1667    0.1083    0.0103 C   0  0  0  0  0  0  0  0  0  0  0  0
   -0.3191    1.3736    0.3581 N   0  0  0  0  0  0  0  0  0  0  0  0
    0.6039    2.4702    0.7555 C   0  0  0  0  0  0  0  0  0  0  0  0
   -0.1472    3.6786    1.1968 C   0  0  0  0  0  0  0  0  0  0  0  0
   -0.2513    4.7743    0.1819 C   0  0  0  0  0  0  0  0  0  0  0  0
    1.2069    5.1885   -0.0713 C   0  0  0  0  0  0  0  0  0  0  0  0
    1.2451    6.3250   -0.8599 O   0  0  0  0  0  0  0  0  0  0  0  0
    1.8152    4.0584   -0.8206 C   0  0  0  0  0  0  0  0  0  0  0  0
    1.6554    2.7016   -0.2678 C   0  0  0  0  0  0  0  0  0  0  0  0
    1.5060   -0.1025    0.2701 N   0  0  0  0  0  0  0  0  0  0  0  0
    7.1370   -2.4978   -1.3969 H   0  0  0  0  0  0  0  0  0  0  0  0
    5.4049   -2.0483   -1.4434 H   0  0  0  0  0  0  0  0  0  0  0  0
    6.1196   -2.9493   -0.0079 H   0  0  0  0  0  0  0  0  0  0  0  0
    7.6230   -0.9486    0.3011 H   0  0  0  0  0  0  0  0  0  0  0  0
    6.6431   -0.0178   -0.8274 H   0  0  0  0  0  0  0  0  0  0  0  0
    5.8333   -1.3696    1.8199 H   0  0  0  0  0  0  0  0  0  0  0  0
    6.1135    0.3598    1.6368 H   0  0  0  0  0  0  0  0  0  0  0  0
    4.1239    0.4363    0.0522 H   0  0  0  0  0  0  0  0  0  0  0  0
    3.7468    0.0992    1.7462 H   0  0  0  0  0  0  0  0  0  0  0  0
    3.8544   -2.4321    0.2712 H   0  0  0  0  0  0  0  0  0  0  0  0
   -0.5593   -2.9786   -0.9274 H   0  0  0  0  0  0  0  0  0  0  0  0
   -2.6768    1.2411   -1.1233 H   0  0  0  0  0  0  0  0  0  0  0  0
   -5.0433    0.1872   -1.4798 H   0  0  0  0  0  0  0  0  0  0  0  0
   -5.8800   -2.2567   -1.9195 H   0  0  0  0  0  0  0  0  0  0  0  0
   -4.6902   -3.5877   -1.5578 H   0  0  0  0  0  0  0  0  0  0  0  0
   -7.8642   -3.2054    0.0555 H   0  0  0  0  0  0  0  0  0  0  0  0
   -6.7380   -4.5305   -0.6427 H   0  0  0  0  0  0  0  0  0  0  0  0
   -4.4800   -3.2084    1.7800 H   0  0  0  0  0  0  0  0  0  0  0  0
   -4.5654   -4.5103    0.4304 H   0  0  0  0  0  0  0  0  0  0  0  0
   -1.2936    1.6214    0.4049 H   0  0  0  0  0  0  0  0  0  0  0  0
    1.1135    2.0534    1.6680 H   0  0  0  0  0  0  0  0  0  0  0  0
   -1.1727    3.3630    1.4788 H   0  0  0  0  0  0  0  0  0  0  0  0
    0.3032    4.1131    2.1131 H   0  0  0  0  0  0  0  0  0  0  0  0
   -0.8344    5.5932    0.5995 H   0  0  0  0  0  0  0  0  0  0  0  0
   -0.6645    4.4260   -0.7857 H   0  0  0  0  0  0  0  0  0  0  0  0
    1.6430    5.3857    0.9120 H   0  0  0  0  0  0  0  0  0  0  0  0
    0.3306    6.5696   -1.1261 H   0  0  0  0  0  0  0  0  0  0  0  0
    2.9177    4.2930   -0.9082 H   0  0  0  0  0  0  0  0  0  0  0  0
    1.4600    4.1556   -1.8860 H   0  0  0  0  0  0  0  0  0  0  0  0
    2.6625    2.3064    0.0628 H   0  0  0  0  0  0  0  0  0  0  0  0
    1.4075    2.0300   -1.1482 H   0  0  0  0  0  0  0  0  0  0  0  0
  1  2  1  0
  2  3  1  0
  3  4  1  0
  4  5  1  0
  5  6  1  0
  6  7  2  0
  7  8  1  0
  8  9  2  0
  9 10  1  0
 10 11  2  0
 11 12  1  0
 12 13  2  0
 13 14  1  0
 14 15  1  0
 15 16  1  0
 16 17  1  0
 17 18  1  0
 17 19  1  0
 17 20  1  0
 13 21  1  0
  9 22  1  0
 22 23  1  0
 23 24  1  0
 24 25  1  0
 25 26  1  0
 26 27  1  0
 27 28  1  0
 27 29  1  0
 29 30  1  0
 22 31  2  0
 31  6  1  0
 21 10  1  0
 30 24  1  0
 20 15  1  0
  1 32  1  0
  1 33  1  0
  1 34  1  0
  2 35  1  0
  2 36  1  0
  3 37  1  0
  3 38  1  0
  4 39  1  0
  4 40  1  0
  5 41  1  0
  8 42  1  0
 11 43  1  0
 12 44  1  0
 14 45  1  0
 14 46  1  0
 16 47  1  0
 16 48  1  0
 20 49  1  0
 20 50  1  0
 23 51  1  0
 24 52  1  0
 25 53  1  0
 25 54  1  0
 26 55  1  0
 26 56  1  0
 27 57  1  0
 28 58  1  0
 29 59  1  0
 29 60  1  0
 30 61  1  0
 30 62  1  0
M  END
$$$$
[H]OC1([H])C([H])([H])C([H])([H])C([H])(N([H])c2nc(N([H])C([H])([H])C([H])([H])C([H])([H])C([H])([H])[H])nc([H])c2-c2nc([H])c(C3(N4C([H])([H])C([H])([H])OC([H])([H])C4([H])[H])C([H])([H])C([H])([H])C([H])([H])C3([H])[H])c([H])c2[H])C([H])([H])C1([H])[H]
     RDKit          3D

 78 82  0  0  0  0  0  0  0  0999 V2000
   -7.6539   -3.4533   -0.6014 C   0  0  0  0  0  0  0  0  0  0  0  0
   -6.2222   -3.6580   -0.1833 C   0  0  0  0  0  0  0  0  0  0  0  0
   -5.3897   -3.8268   -1.4550 C   0  0  0  0  0  0  0  0  0  0  0  0
   -5.5303   -2.5797   -2.3079 C   0  0  0  0  0  0  0  0  0  0  0  0
   -5.1002   -1.3799   -1.6705 N   0  0  0  0  0  0  0  0  0  0  0  0
   -3.7492   -1.1458   -1.2589 C   0  0  0  0  0  0  0  0  0  0  0  0
   -2.7904   -2.0557   -1.4620 N   0  0  0  0  0  0  0  0  0  0  0  0
   -1.5442   -1.8353   -1.0797 C   0  0  0  0  0  0  0  0  0  0  0  0
   -1.1589   -0.6444   -0.4447 C   0  0  0  0  0  0  0  0  0  0  0  0
   -2.1283    0.2872   -0.2275 C   0  0  0  0  0  0  0  0  0  0  0  0
   -1.9380    1.4872    0.5313 N   0  0  0  0  0  0  0  0  0  0  0  0
   -3.0514    2.4223    0.6049 C   0  0  0  0  0  0  0  0  0  0  0  0
   -3.4201    2.9785   -0.7358 C   0  0  0  0  0  0  0  0  0  0  0  0
   -4.0987    4.3180   -0.5193 C   0  0  0  0  0  0  0  0  0  0  0  0
   -3.0356    5.3463   -0.1584 C   0  0  0  0  0  0  0  0  0  0  0  0
   -3.6270    6.4986    0.3772 O   0  0  0  0  0  0  0  0  0  0  0  0
   -2.0985    4.7350    0.8348 C   0  0  0  0  0  0  0  0  0  0  0  0
   -2.7019    3.5516    1.5325 C   0  0  0  0  0  0  0  0  0  0  0  0
   -3.3918   -0.0140   -0.6536 N   0  0  0  0  0  0  0  0  0  0  0  0
    0.2238   -0.5113   -0.0671 C   0  0  0  0  0  0  0  0  0  0  0  0
    0.9431    0.6482   -0.0929 C   0  0  0  0  0  0  0  0  0  0  0  0
    2.2765    0.6319    0.2145 C   0  0  0  0  0  0  0  0  0  0  0  0
    2.9307   -0.5147    0.5501 C   0  0  0  0  0  0  0  0  0  0  0  0
    2.2019   -1.6853    0.5728 C   0  0  0  0  0  0  0  0  0  0  0  0
    0.8942   -1.6555    0.2702 N   0  0  0  0  0  0  0  0  0  0  0  0
    4.3934   -0.5281    0.9020 C   0  0  0  0  0  0  0  0  0  0  0  0
    4.6504   -1.5183    2.0135 C   0  0  0  0  0  0  0  0  0  0  0  0
    5.3198   -0.7965    3.1419 C   0  0  0  0  0  0  0  0  0  0  0  0
    5.5658    0.6062    2.7087 C   0  0  0  0  0  0  0  0  0  0  0  0
    4.6558    0.8148    1.5460 C   0  0  0  0  0  0  0  0  0  0  0  0
    5.2038   -0.8162   -0.2059 N   0  0  0  0  0  0  0  0  0  0  0  0
    5.0421   -2.0326   -0.8870 C   0  0  0  0  0  0  0  0  0  0  0  0
    5.9307   -2.1017   -2.1358 C   0  0  0  0  0  0  0  0  0  0  0  0
    7.2383   -2.0476   -1.6571 O   0  0  0  0  0  0  0  0  0  0  0  0
    7.4343   -0.7317   -1.2402 C   0  0  0  0  0  0  0  0  0  0  0  0
    6.5523   -0.3350   -0.1056 C   0  0  0  0  0  0  0  0  0  0  0  0
   -7.8166   -4.0426   -1.5352 H   0  0  0  0  0  0  0  0  0  0  0  0
   -7.8019   -2.3679   -0.7683 H   0  0  0  0  0  0  0  0  0  0  0  0
   -8.3936   -3.8578    0.1330 H   0  0  0  0  0  0  0  0  0  0  0  0
   -5.8949   -2.7668    0.3750 H   0  0  0  0  0  0  0  0  0  0  0  0
   -6.0977   -4.5752    0.4416 H   0  0  0  0  0  0  0  0  0  0  0  0
   -5.8126   -4.6631   -2.0616 H   0  0  0  0  0  0  0  0  0  0  0  0
   -4.3496   -4.0966   -1.2487 H   0  0  0  0  0  0  0  0  0  0  0  0
   -5.0068   -2.7841   -3.2754 H   0  0  0  0  0  0  0  0  0  0  0  0
   -6.6082   -2.4929   -2.5758 H   0  0  0  0  0  0  0  0  0  0  0  0
   -5.7940   -0.5983   -1.4744 H   0  0  0  0  0  0  0  0  0  0  0  0
   -0.7985   -2.6215   -1.2718 H   0  0  0  0  0  0  0  0  0  0  0  0
   -1.1062    1.7329    1.0610 H   0  0  0  0  0  0  0  0  0  0  0  0
   -3.9627    1.9255    1.0148 H   0  0  0  0  0  0  0  0  0  0  0  0
   -4.1302    2.3573   -1.2938 H   0  0  0  0  0  0  0  0  0  0  0  0
   -2.4726    3.1256   -1.3286 H   0  0  0  0  0  0  0  0  0  0  0  0
   -4.7688    4.1938    0.3552 H   0  0  0  0  0  0  0  0  0  0  0  0
   -4.6492    4.6421   -1.4372 H   0  0  0  0  0  0  0  0  0  0  0  0
   -2.5330    5.6273   -1.1056 H   0  0  0  0  0  0  0  0  0  0  0  0
   -2.9964    6.8897    1.0020 H   0  0  0  0  0  0  0  0  0  0  0  0
   -1.1035    4.5197    0.3895 H   0  0  0  0  0  0  0  0  0  0  0  0
   -1.9071    5.4982    1.6437 H   0  0  0  0  0  0  0  0  0  0  0  0
   -1.9623    3.2214    2.3002 H   0  0  0  0  0  0  0  0  0  0  0  0
   -3.5914    3.9248    2.0974 H   0  0  0  0  0  0  0  0  0  0  0  0
    0.4697    1.6092   -0.4035 H   0  0  0  0  0  0  0  0  0  0  0  0
    2.8257    1.5594    0.1876 H   0  0  0  0  0  0  0  0  0  0  0  0
    2.6898   -2.6352    0.8335 H   0  0  0  0  0  0  0  0  0  0  0  0
    3.7055   -1.9337    2.4265 H   0  0  0  0  0  0  0  0  0  0  0  0
    5.2399   -2.4059    1.6891 H   0  0  0  0  0  0  0  0  0  0  0  0
    6.2817   -1.3201    3.4193 H   0  0  0  0  0  0  0  0  0  0  0  0
    4.6891   -0.7917    4.0800 H   0  0  0  0  0  0  0  0  0  0  0  0
    5.2850    1.2890    3.5666 H   0  0  0  0  0  0  0  0  0  0  0  0
    6.6320    0.8171    2.4867 H   0  0  0  0  0  0  0  0  0  0  0  0
    4.9760    1.5910    0.8325 H   0  0  0  0  0  0  0  0  0  0  0  0
    3.6963    1.2235    1.9866 H   0  0  0  0  0  0  0  0  0  0  0  0
    5.3651   -2.8854   -0.2660 H   0  0  0  0  0  0  0  0  0  0  0  0
    4.0280   -2.2492   -1.2622 H   0  0  0  0  0  0  0  0  0  0  0  0
    5.6562   -1.2247   -2.7525 H   0  0  0  0  0  0  0  0  0  0  0  0
    5.7154   -3.0438   -2.6753 H   0  0  0  0  0  0  0  0  0  0  0  0
    7.3210   -0.0990   -2.1446 H   0  0  0  0  0  0  0  0  0  0  0  0
    8.5135   -0.6726   -0.9590 H   0  0  0  0  0  0  0  0  0  0  0  0
    6.6547    0.7505    0.0564 H   0  0  0  0  0  0  0  0  0  0  0  0
    6.9863   -0.8284    0.8111 H   0  0  0  0  0  0  0  0  0  0  0  0
  1  2  1  0
  2  3  1  0
  3  4  1  0
  4  5  1  0
  5  6  1  0
  6  7  2  0
  7  8  1  0
  8  9  2  0
  9 10  1  0
 10 11  1  0
 11 12  1  0
 12 13  1  0
 13 14  1  0
 14 15  1  0
 15 16  1  0
 15 17  1  0
 17 18  1  0
 10 19  2  0
  9 20  1  0
 20 21  2  0
 21 22  1  0
 22 23  2  0
 23 24  1  0
 24 25  2  0
 23 26  1  0
 26 27  1  0
 27 28  1  0
 28 29  1  0
 29 30  1  0
 26 31  1  0
 31 32  1  0
 32 33  1  0
 33 34  1  0
 34 35  1  0
 35 36  1  0
 19  6  1  0
 25 20  1  0
 30 26  1  0
 36 31  1  0
 18 12  1  0
  1 37  1  0
  1 38  1  0
  1 39  1  0
  2 40  1  0
  2 41  1  0
  3 42  1  0
  3 43  1  0
  4 44  1  0
  4 45  1  0
  5 46  1  0
  8 47  1  0
 11 48  1  0
 12 49  1  0
 13 50  1  0
 13 51  1  0
 14 52  1  0
 14 53  1  0
 15 54  1  0
 16 55  1  0
 17 56  1  0
 17 57  1  0
 18 58  1  0
 18 59  1  0
 21 60  1  0
 22 61  1  0
 24 62  1  0
 27 63  1  0
 27 64  1  0
 28 65  1  0
 28 66  1  0
 29 67  1  0
 29 68  1  0
 30 69  1  0
 30 70  1  0
 32 71  1  0
 32 72  1  0
 33 73  1  0
 33 74  1  0
 35 75  1  0
 35 76  1  0
 36 77  1  0
 36 78  1  0
M  END
$$$$
[H]O[C@]1([H])C([H])([H])C([H])([H])[C@@]([H])(N([H])c2nc(N([H])C([H])([H])C([H])([H])C([H])([H])C([H])([H])[H])nc([H])c2-c2nc([H])c(C([H])([H])[H])s2)C([H])([H])C1([H])[H]
     RDKit          3D

 52 54  0  0  0  0  0  0  0  0999 V2000
    6.6316   -0.0067   -0.3418 C   0  0  0  0  0  0  0  0  0  0  0  0
    6.3058    0.7068    0.9479 C   0  0  0  0  0  0  0  0  0  0  0  0
    4.8103    0.8292    1.1575 C   0  0  0  0  0  0  0  0  0  0  0  0
    4.1545    1.5976    0.0504 C   0  0  0  0  0  0  0  0  0  0  0  0
    2.7408    1.7559    0.1825 N   0  0  0  0  0  0  0  0  0  0  0  0
    1.8025    0.6720    0.1439 C   0  0  0  0  0  0  0  0  0  0  0  0
    2.3062   -0.5600   -0.0359 N   0  0  0  0  0  0  0  0  0  0  0  0
    1.5124   -1.6354   -0.0861 C   0  0  0  0  0  0  0  0  0  0  0  0
    0.1384   -1.4366    0.0547 C   0  0  0  0  0  0  0  0  0  0  0  0
   -0.6588   -2.6873   -0.0146 C   0  0  0  0  0  0  0  0  0  0  0  0
   -0.1679   -3.9168   -0.1930 N   0  0  0  0  0  0  0  0  0  0  0  0
   -0.9499   -4.9340   -0.2378 C   0  0  0  0  0  0  0  0  0  0  0  0
   -2.2976   -4.7164   -0.0971 C   0  0  0  0  0  0  0  0  0  0  0  0
   -3.4091   -5.7298   -0.1133 C   0  0  0  0  0  0  0  0  0  0  0  0
   -2.3226   -3.0271    0.0917 S   0  0  0  0  0  0  0  0  0  0  0  0
   -0.3621   -0.2003    0.2346 C   0  0  0  0  0  0  0  0  0  0  0  0
   -1.7386    0.0271    0.3787 N   0  0  0  0  0  0  0  0  0  0  0  0
   -2.1877    1.4121    0.5706 C   0  0  1  0  0  0  0  0  0  0  0  0
   -1.8036    2.2898   -0.5794 C   0  0  0  0  0  0  0  0  0  0  0  0
   -2.9144    3.1917   -1.0435 C   0  0  0  0  0  0  0  0  0  0  0  0
   -4.2178    2.5062   -1.2411 C   0  0  2  0  0  0  0  0  0  0  0  0
   -5.2369    3.4513   -1.0029 O   0  0  0  0  0  0  0  0  0  0  0  0
   -4.4610    1.3571   -0.3030 C   0  0  0  0  0  0  0  0  0  0  0  0
   -3.6321    1.4954    0.9439 C   0  0  0  0  0  0  0  0  0  0  0  0
    0.4961    0.8630    0.2779 N   0  0  0  0  0  0  0  0  0  0  0  0
    5.8411   -0.7013   -0.6699 H   0  0  0  0  0  0  0  0  0  0  0  0
    7.5999   -0.5753   -0.2461 H   0  0  0  0  0  0  0  0  0  0  0  0
    6.8072    0.7611   -1.1405 H   0  0  0  0  0  0  0  0  0  0  0  0
    6.7543    0.1381    1.7871 H   0  0  0  0  0  0  0  0  0  0  0  0
    6.7980    1.7086    0.9406 H   0  0  0  0  0  0  0  0  0  0  0  0
    4.6900    1.4039    2.1210 H   0  0  0  0  0  0  0  0  0  0  0  0
    4.4135   -0.1814    1.3286 H   0  0  0  0  0  0  0  0  0  0  0  0
    4.6828    2.5783   -0.0239 H   0  0  0  0  0  0  0  0  0  0  0  0
    4.3473    1.0133   -0.9001 H   0  0  0  0  0  0  0  0  0  0  0  0
    2.3769    2.7458    0.3176 H   0  0  0  0  0  0  0  0  0  0  0  0
    1.9209   -2.6361   -0.2320 H   0  0  0  0  0  0  0  0  0  0  0  0
   -0.5749   -5.9769   -0.3855 H   0  0  0  0  0  0  0  0  0  0  0  0
   -3.5634   -6.0277    0.9431 H   0  0  0  0  0  0  0  0  0  0  0  0
   -4.3581   -5.2398   -0.4523 H   0  0  0  0  0  0  0  0  0  0  0  0
   -3.1393   -6.5957   -0.7158 H   0  0  0  0  0  0  0  0  0  0  0  0
   -2.4562   -0.6695    0.3636 H   0  0  0  0  0  0  0  0  0  0  0  0
   -1.6007    1.7737    1.4624 H   0  0  0  0  0  0  0  0  0  0  0  0
   -1.5030    1.6494   -1.4227 H   0  0  0  0  0  0  0  0  0  0  0  0
   -0.9272    2.9513   -0.3568 H   0  0  0  0  0  0  0  0  0  0  0  0
   -3.0261    4.0826   -0.3598 H   0  0  0  0  0  0  0  0  0  0  0  0
   -2.5939    3.6267   -2.0179 H   0  0  0  0  0  0  0  0  0  0  0  0
   -4.3528    2.1569   -2.2838 H   0  0  0  0  0  0  0  0  0  0  0  0
   -5.1946    3.7789   -0.0643 H   0  0  0  0  0  0  0  0  0  0  0  0
   -5.5303    1.3362    0.0153 H   0  0  0  0  0  0  0  0  0  0  0  0
   -4.2729    0.3973   -0.8088 H   0  0  0  0  0  0  0  0  0  0  0  0
   -3.8217    2.4911    1.3903 H   0  0  0  0  0  0  0  0  0  0  0  0
   -3.8551    0.7058    1.6658 H   0  0  0  0  0  0  0  0  0  0  0  0
  1  2  1  0
  2  3  1  0
  3  4  1  0
  4  5  1  0
  5  6  1  0
  6  7  2  0
  7  8  1  0
  8  9  2  0
  9 10  1  0
 10 11  2  0
 11 12  1  0
 12 13  2  0
 13 14  1  0
 13 15  1  0
  9 16  1  0
 16 17  1  0
 17 18  1  0
 18 19  1  0
 19 20  1  0
 20 21  1  0
 21 22  1  0
 21 23  1  0
 23 24  1  0
 16 25  2  0
 25  6  1  0
 15 10  1  0
 24 18  1  0
  1 26  1  0
  1 27  1  0
  1 28  1  0
  2 29  1  0
  2 30  1  0
  3 31  1  0
  3 32  1  0
  4 33  1  0
  4 34  1  0
  5 35  1  0
  8 36  1  0
 12 37  1  0
 14 38  1  0
 14 39  1  0
 14 40  1  0
 17 41  1  0
 18 42  1  1
 19 43  1  0
 19 44  1  0
 20 45  1  0
 20 46  1  0
 21 47  1  6
 22 48  1  0
 23 49  1  0
 23 50  1  0
 24 51  1  0
 24 52  1  0
M  END
$$$$
[H]c1nn(-c2nc([H])c(C([H])([H])N([H])C(=O)c3c([H])nc4nc3N([H])C([H])([H])C([H])([H])C([H])([H])C([H])([H])[C@]([H])(N([H])[H])C(=O)N([H])C([H])([H])C([H])([H])C([H])([H])C([H])([H])C([H])([H])C([H])([H])N4[H])c([H])c2[H])c([H])c1[H]
     RDKit          3D

 74 77  0  0  0  0  0  0  0  0999 V2000
   -4.4040    3.9585    1.1945 N   0  0  0  0  0  0  0  0  0  0  0  0
   -4.8321    3.5895   -0.1289 C   0  0  1  0  0  0  0  0  0  0  0  0
   -3.8379    2.6420   -0.8164 C   0  0  0  0  0  0  0  0  0  0  0  0
   -2.4404    3.1797   -0.7817 C   0  0  0  0  0  0  0  0  0  0  0  0
   -1.4135    2.1229   -0.5760 C   0  0  0  0  0  0  0  0  0  0  0  0
   -1.5808    0.9721   -1.5289 C   0  0  0  0  0  0  0  0  0  0  0  0
   -0.2906    0.2531   -1.5280 N   0  0  0  0  0  0  0  0  0  0  0  0
   -0.1358   -0.9181   -0.7453 C   0  0  0  0  0  0  0  0  0  0  0  0
   -1.0137   -1.9097   -0.6817 N   0  0  0  0  0  0  0  0  0  0  0  0
   -0.8871   -2.9784    0.0664 C   0  0  0  0  0  0  0  0  0  0  0  0
   -1.8235   -4.0661    0.1515 N   0  0  0  0  0  0  0  0  0  0  0  0
   -3.2067   -3.9426    0.5455 C   0  0  0  0  0  0  0  0  0  0  0  0
   -4.0136   -2.9955   -0.3039 C   0  0  0  0  0  0  0  0  0  0  0  0
   -4.4787   -1.7704    0.4626 C   0  0  0  0  0  0  0  0  0  0  0  0
   -5.5451   -1.1048   -0.3663 C   0  0  0  0  0  0  0  0  0  0  0  0
   -6.7046   -0.6001    0.4943 C   0  0  0  0  0  0  0  0  0  0  0  0
   -6.3060    0.7822    0.9921 C   0  0  0  0  0  0  0  0  0  0  0  0
   -6.6322    1.7434   -0.0475 N   0  0  0  0  0  0  0  0  0  0  0  0
   -6.2009    3.0535   -0.1780 C   0  0  0  0  0  0  0  0  0  0  0  0
   -7.1258    3.9331   -0.3673 O   0  0  0  0  0  0  0  0  0  0  0  0
    0.2403   -3.0793    0.8413 N   0  0  0  0  0  0  0  0  0  0  0  0
    1.1746   -2.1241    0.8400 C   0  0  0  0  0  0  0  0  0  0  0  0
    1.0138   -1.0145    0.0458 C   0  0  0  0  0  0  0  0  0  0  0  0
    2.0311    0.0565   -0.0195 C   0  0  0  0  0  0  0  0  0  0  0  0
    2.0169    0.9964   -0.8113 O   0  0  0  0  0  0  0  0  0  0  0  0
    3.0857   -0.0504    0.9502 N   0  0  0  0  0  0  0  0  0  0  0  0
    4.0198   -0.1426    1.8073 C   0  0  0  0  0  0  0  0  0  0  0  0
    5.4167   -0.3057    1.2836 C   0  0  0  0  0  0  0  0  0  0  0  0
    6.1888   -1.3993    1.3554 C   0  0  0  0  0  0  0  0  0  0  0  0
    7.5141   -1.3955    0.9013 C   0  0  0  0  0  0  0  0  0  0  0  0
    8.0655   -0.2297    0.3529 C   0  0  0  0  0  0  0  0  0  0  0  0
    7.2506    0.8108    0.3113 N   0  0  0  0  0  0  0  0  0  0  0  0
    5.9848    0.8654    0.7294 C   0  0  0  0  0  0  0  0  0  0  0  0
    9.4145   -0.1952   -0.0852 N   0  0  0  0  0  0  0  0  0  0  0  0
   10.3040   -1.1412   -0.3145 C   0  0  0  0  0  0  0  0  0  0  0  0
   11.5037   -0.5760   -0.7170 C   0  0  0  0  0  0  0  0  0  0  0  0
   11.2981    0.7552   -0.7220 C   0  0  0  0  0  0  0  0  0  0  0  0
   10.0249    1.0051   -0.3441 N   0  0  0  0  0  0  0  0  0  0  0  0
   -3.7929    3.2273    1.5978 H   0  0  0  0  0  0  0  0  0  0  0  0
   -3.8550    4.8542    1.2327 H   0  0  0  0  0  0  0  0  0  0  0  0
   -4.7863    4.5346   -0.7335 H   0  0  0  0  0  0  0  0  0  0  0  0
   -4.1523    2.6711   -1.8968 H   0  0  0  0  0  0  0  0  0  0  0  0
   -3.9213    1.6376   -0.3977 H   0  0  0  0  0  0  0  0  0  0  0  0
   -2.3739    3.9507    0.0381 H   0  0  0  0  0  0  0  0  0  0  0  0
   -2.1788    3.7409   -1.7143 H   0  0  0  0  0  0  0  0  0  0  0  0
   -1.5158    1.7474    0.4795 H   0  0  0  0  0  0  0  0  0  0  0  0
   -0.3661    2.5389   -0.6492 H   0  0  0  0  0  0  0  0  0  0  0  0
   -2.3827    0.3231   -1.1022 H   0  0  0  0  0  0  0  0  0  0  0  0
   -1.7846    1.2437   -2.5729 H   0  0  0  0  0  0  0  0  0  0  0  0
    0.4722    0.6416   -2.0900 H   0  0  0  0  0  0  0  0  0  0  0  0
   -1.4849   -5.0425   -0.0889 H   0  0  0  0  0  0  0  0  0  0  0  0
   -3.6661   -4.9784    0.4940 H   0  0  0  0  0  0  0  0  0  0  0  0
   -3.3406   -3.6578    1.6283 H   0  0  0  0  0  0  0  0  0  0  0  0
   -3.4734   -2.6316   -1.1979 H   0  0  0  0  0  0  0  0  0  0  0  0
   -4.9299   -3.4942   -0.6524 H   0  0  0  0  0  0  0  0  0  0  0  0
   -4.8443   -2.0867    1.4852 H   0  0  0  0  0  0  0  0  0  0  0  0
   -3.5984   -1.1197    0.6415 H   0  0  0  0  0  0  0  0  0  0  0  0
   -5.0837   -0.3424   -0.9705 H   0  0  0  0  0  0  0  0  0  0  0  0
   -5.9766   -1.8590   -1.0790 H   0  0  0  0  0  0  0  0  0  0  0  0
   -7.6512   -0.5640   -0.0794 H   0  0  0  0  0  0  0  0  0  0  0  0
   -6.8025   -1.2168    1.4081 H   0  0  0  0  0  0  0  0  0  0  0  0
   -5.2557    0.7383    1.2693 H   0  0  0  0  0  0  0  0  0  0  0  0
   -6.9940    0.9775    1.8682 H   0  0  0  0  0  0  0  0  0  0  0  0
   -7.3072    1.3566   -0.7970 H   0  0  0  0  0  0  0  0  0  0  0  0
    2.0850   -2.1898    1.4520 H   0  0  0  0  0  0  0  0  0  0  0  0
    3.4338    1.2671    0.6096 H   0  0  0  0  0  0  0  0  0  0  0  0
    3.9205   -1.1143    2.4641 H   0  0  0  0  0  0  0  0  0  0  0  0
    4.0775    0.6948    2.6348 H   0  0  0  0  0  0  0  0  0  0  0  0
    5.7785   -2.3231    1.7956 H   0  0  0  0  0  0  0  0  0  0  0  0
    8.1270   -2.2673    0.9651 H   0  0  0  0  0  0  0  0  0  0  0  0
    5.3961    1.7791    0.6288 H   0  0  0  0  0  0  0  0  0  0  0  0
   10.0881   -2.2182   -0.2088 H   0  0  0  0  0  0  0  0  0  0  0  0
   12.4225   -1.1141   -0.9834 H   0  0  0  0  0  0  0  0  0  0  0  0
   12.0414    1.5153   -0.9886 H   0  0  0  0  0  0  0  0  0  0  0  0
  1  2  1  0
  2  3  1  0
  3  4  1  0
  4  5  1  0
  5  6  1  0
  6  7  1  0
  7  8  1  0
  8  9  1  0
  9 10  2  0
 10 11  1  0
 11 12  1  0
 12 13  1  0
 13 14  1  0
 14 15  1  0
 15 16  1  0
 16 17  1  0
 17 18  1  0
 18 19  1  0
 19 20  2  0
 10 21  1  0
 21 22  2  0
 22 23  1  0
 23 24  1  0
 24 25  2  0
 24 26  1  0
 26 27  1  0
 27 28  1  0
 28 29  2  0
 29 30  1  0
 30 31  2  0
 31 32  1  0
 32 33  2  0
 31 34  1  0
 34 35  1  0
 35 36  2  0
 36 37  1  0
 37 38  2  0
 19  2  1  0
 33 28  1  0
 38 34  1  0
 23  8  2  0
  1 39  1  0
  1 40  1  0
  2 41  1  6
  3 42  1  0
  3 43  1  0
  4 44  1  0
  4 45  1  0
  5 46  1  0
  5 47  1  0
  6 48  1  0
  6 49  1  0
  7 50  1  0
 11 51  1  0
 12 52  1  0
 12 53  1  0
 13 54  1  0
 13 55  1  0
 14 56  1  0
 14 57  1  0
 15 58  1  0
 15 59  1  0
 16 60  1  0
 16 61  1  0
 17 62  1  0
 17 63  1  0
 18 64  1  0
 22 65  1  0
 26 66  1  0
 27 67  1  0
 27 68  1  0
 29 69  1  0
 30 70  1  0
 33 71  1  0
 35 72  1  0
 36 73  1  0
 37 74  1  0
M  END
$$$$
[H]OC(=O)c1c([H])c([H])c(-c2nn(C([H])([H])[C@]3([H])C([H])([H])C([H])([H])[C@@]([H])(N([H])[H])C([H])([H])C3([H])[H])c3nc(N([H])C([H])([H])C([H])([H])C([H])([H])C([H])([H])[H])nc([H])c23)c([H])c1[H]
     RDKit          3D

 61 64  0  0  0  0  0  0  0  0999 V2000
    5.7345   -3.7560   -0.9450 C   0  0  0  0  0  0  0  0  0  0  0  0
    5.1201   -2.3885   -1.2365 C   0  0  0  0  0  0  0  0  0  0  0  0
    5.4747   -1.4251   -0.1381 C   0  0  0  0  0  0  0  0  0  0  0  0
    4.9698   -1.8824    1.2064 C   0  0  0  0  0  0  0  0  0  0  0  0
    3.5446   -2.0433    1.2779 N   0  0  0  0  0  0  0  0  0  0  0  0
    2.6086   -0.9786    1.1126 C   0  0  0  0  0  0  0  0  0  0  0  0
    2.9972    0.2814    0.8769 N   0  0  0  0  0  0  0  0  0  0  0  0
    2.1316    1.2999    0.7181 C   0  0  0  0  0  0  0  0  0  0  0  0
    0.7946    1.0431    0.8000 C   0  0  0  0  0  0  0  0  0  0  0  0
   -0.3242    1.8329    0.6894 C   0  0  0  0  0  0  0  0  0  0  0  0
   -1.3748    1.0239    0.8627 N   0  0  0  0  0  0  0  0  0  0  0  0
   -1.0064   -0.2221    1.0752 N   0  0  0  0  0  0  0  0  0  0  0  0
   -1.7988   -1.4142    1.3111 C   0  0  0  0  0  0  0  0  0  0  0  0
   -2.1667   -2.1578    0.0716 C   0  0  1  0  0  0  0  0  0  0  0  0
   -2.9800   -3.3595    0.4638 C   0  0  0  0  0  0  0  0  0  0  0  0
   -4.2812   -3.4475   -0.2976 C   0  0  0  0  0  0  0  0  0  0  0  0
   -5.0970   -2.1830   -0.2111 C   0  0  2  0  0  0  0  0  0  0  0  0
   -6.0786   -2.2361   -1.2778 N   0  0  0  0  0  0  0  0  0  0  0  0
   -4.2897   -0.9313   -0.3414 C   0  0  0  0  0  0  0  0  0  0  0  0
   -2.9215   -1.2967   -0.8865 C   0  0  0  0  0  0  0  0  0  0  0  0
    0.3576   -0.2435    1.0418 C   0  0  0  0  0  0  0  0  0  0  0  0
    1.2780   -1.1964    1.1874 N   0  0  0  0  0  0  0  0  0  0  0  0
   -0.3907    3.2915    0.4315 C   0  0  0  0  0  0  0  0  0  0  0  0
   -1.2456    4.0639    1.1891 C   0  0  0  0  0  0  0  0  0  0  0  0
   -1.3109    5.4175    0.9519 C   0  0  0  0  0  0  0  0  0  0  0  0
   -0.5585    6.0401   -0.0115 C   0  0  0  0  0  0  0  0  0  0  0  0
    0.2861    5.2440   -0.7523 C   0  0  0  0  0  0  0  0  0  0  0  0
    0.3710    3.8712   -0.5323 C   0  0  0  0  0  0  0  0  0  0  0  0
   -0.6701    7.4769   -0.2170 C   0  0  0  0  0  0  0  0  0  0  0  0
    0.0719    8.1445   -1.1798 O   0  0  0  0  0  0  0  0  0  0  0  0
   -1.4567    8.1574    0.4873 O   0  0  0  0  0  0  0  0  0  0  0  0
    6.8088   -3.6635   -0.6666 H   0  0  0  0  0  0  0  0  0  0  0  0
    5.6692   -4.4142   -1.8269 H   0  0  0  0  0  0  0  0  0  0  0  0
    5.1966   -4.2473   -0.0977 H   0  0  0  0  0  0  0  0  0  0  0  0
    4.0474   -2.5126   -1.3764 H   0  0  0  0  0  0  0  0  0  0  0  0
    5.5764   -2.0550   -2.1904 H   0  0  0  0  0  0  0  0  0  0  0  0
    5.1129   -0.4199   -0.3704 H   0  0  0  0  0  0  0  0  0  0  0  0
    6.6001   -1.3286   -0.1112 H   0  0  0  0  0  0  0  0  0  0  0  0
    5.2488   -1.1303    1.9906 H   0  0  0  0  0  0  0  0  0  0  0  0
    5.4776   -2.8385    1.4717 H   0  0  0  0  0  0  0  0  0  0  0  0
    3.1779   -3.0282    1.4668 H   0  0  0  0  0  0  0  0  0  0  0  0
    2.4786    2.2933    0.5317 H   0  0  0  0  0  0  0  0  0  0  0  0
   -1.2690   -2.0897    2.0458 H   0  0  0  0  0  0  0  0  0  0  0  0
   -2.7577   -1.1583    1.8508 H   0  0  0  0  0  0  0  0  0  0  0  0
   -1.2123   -2.4629   -0.4478 H   0  0  0  0  0  0  0  0  0  0  0  0
   -2.3942   -4.2664    0.2157 H   0  0  0  0  0  0  0  0  0  0  0  0
   -3.1561   -3.4045    1.5733 H   0  0  0  0  0  0  0  0  0  0  0  0
   -4.8847   -4.2546    0.1933 H   0  0  0  0  0  0  0  0  0  0  0  0
   -4.0888   -3.7588   -1.3232 H   0  0  0  0  0  0  0  0  0  0  0  0
   -5.6781   -2.1257    0.7392 H   0  0  0  0  0  0  0  0  0  0  0  0
   -5.6011   -2.3135   -2.1972 H   0  0  0  0  0  0  0  0  0  0  0  0
   -6.7085   -1.3962   -1.2670 H   0  0  0  0  0  0  0  0  0  0  0  0
   -4.7953   -0.2497   -1.0408 H   0  0  0  0  0  0  0  0  0  0  0  0
   -4.1886   -0.3863    0.6261 H   0  0  0  0  0  0  0  0  0  0  0  0
   -3.0740   -1.7744   -1.8760 H   0  0  0  0  0  0  0  0  0  0  0  0
   -2.3826   -0.3460   -1.0865 H   0  0  0  0  0  0  0  0  0  0  0  0
   -1.8633    3.6281    1.9630 H   0  0  0  0  0  0  0  0  0  0  0  0
   -1.9760    6.0513    1.5337 H   0  0  0  0  0  0  0  0  0  0  0  0
    0.8941    5.6958   -1.5193 H   0  0  0  0  0  0  0  0  0  0  0  0
    1.0473    3.2547   -1.1314 H   0  0  0  0  0  0  0  0  0  0  0  0
    0.9053    8.6756   -0.9683 H   0  0  0  0  0  0  0  0  0  0  0  0
  1  2  1  0
  2  3  1  0
  3  4  1  0
  4  5  1  0
  5  6  1  0
  6  7  2  0
  7  8  1  0
  8  9  2  0
  9 10  1  0
 10 11  2  0
 11 12  1  0
 12 13  1  0
 13 14  1  0
 14 15  1  0
 15 16  1  0
 16 17  1  0
 17 18  1  0
 17 19  1  0
 19 20  1  0
 12 21  1  0
 21 22  2  0
 10 23  1  0
 23 24  2  0
 24 25  1  0
 25 26  2  0
 26 27  1  0
 27 28  2  0
 26 29  1  0
 29 30  1  0
 29 31  2  0
 22  6  1  0
 28 23  1  0
 21  9  1  0
 20 14  1  0
  1 32  1  0
  1 33  1  0
  1 34  1  0
  2 35  1  0
  2 36  1  0
  3 37  1  0
  3 38  1  0
  4 39  1  0
  4 40  1  0
  5 41  1  0
  8 42  1  0
 13 43  1  0
 13 44  1  0
 14 45  1  6
 15 46  1  0
 15 47  1  0
 16 48  1  0
 16 49  1  0
 17 50  1  1
 18 51  1  0
 18 52  1  0
 19 53  1  0
 19 54  1  0
 20 55  1  0
 20 56  1  0
 24 57  1  0
 25 58  1  0
 27 59  1  0
 28 60  1  0
 30 61  1  0
M  END
$$$$
[H]O[C@]1([H])C([H])([H])C([H])([H])[C@@]([H])(N([H])c2nc(N([H])c3c([H])c([H])c(C([H])([H])[H])c([H])c3[H])nc([H])c2-c2nc([H])c(C([H])([H])N3C([H])([H])C([H])([H])C([H])([H])C3([H])[H])c([H])c2[H])C([H])([H])C1([H])[H]
     RDKit          3D

 68 72  0  0  0  0  0  0  0  0999 V2000
   -6.8279    6.1076    0.1756 C   0  0  0  0  0  0  0  0  0  0  0  0
   -6.0052    4.8734    0.1314 C   0  0  0  0  0  0  0  0  0  0  0  0
   -4.6636    4.8851   -0.1009 C   0  0  0  0  0  0  0  0  0  0  0  0
   -3.9266    3.7040   -0.1345 C   0  0  0  0  0  0  0  0  0  0  0  0
   -4.4979    2.4759    0.0617 C   0  0  0  0  0  0  0  0  0  0  0  0
   -3.8715    1.2367    0.0727 N   0  0  0  0  0  0  0  0  0  0  0  0
   -2.4842    0.9909    0.1923 C   0  0  0  0  0  0  0  0  0  0  0  0
   -1.5448    1.9316    0.3252 N   0  0  0  0  0  0  0  0  0  0  0  0
   -0.2483    1.6773    0.4382 C   0  0  0  0  0  0  0  0  0  0  0  0
    0.2099    0.3339    0.4214 C   0  0  0  0  0  0  0  0  0  0  0  0
   -0.7269   -0.6364    0.2825 C   0  0  0  0  0  0  0  0  0  0  0  0
   -0.3695   -1.9902    0.1225 N   0  0  0  0  0  0  0  0  0  0  0  0
   -1.3458   -3.0610    0.0406 C   0  0  1  0  0  0  0  0  0  0  0  0
   -2.2641   -3.1475    1.2167 C   0  0  0  0  0  0  0  0  0  0  0  0
   -3.0579   -4.4517    1.0380 C   0  0  0  0  0  0  0  0  0  0  0  0
   -3.7276   -4.5103   -0.3122 C   0  0  2  0  0  0  0  0  0  0  0  0
   -3.0910   -5.4370   -1.1567 O   0  0  0  0  0  0  0  0  0  0  0  0
   -3.6100   -3.1610   -0.9792 C   0  0  0  0  0  0  0  0  0  0  0  0
   -2.1389   -2.9054   -1.2159 C   0  0  0  0  0  0  0  0  0  0  0  0
   -2.0183   -0.2791    0.1769 N   0  0  0  0  0  0  0  0  0  0  0  0
    1.6537    0.1835    0.5495 C   0  0  0  0  0  0  0  0  0  0  0  0
    2.2908   -0.8107    1.2393 C   0  0  0  0  0  0  0  0  0  0  0  0
    3.6864   -0.8072    1.3737 C   0  0  0  0  0  0  0  0  0  0  0  0
    4.4394    0.1949    0.8172 C   0  0  0  0  0  0  0  0  0  0  0  0
    5.9094    0.2529    0.9314 C   0  0  0  0  0  0  0  0  0  0  0  0
    6.6286   -0.5389   -0.0125 N   0  0  0  0  0  0  0  0  0  0  0  0
    6.4241   -0.2269   -1.3878 C   0  0  0  0  0  0  0  0  0  0  0  0
    7.5381    0.7451   -1.7757 C   0  0  0  0  0  0  0  0  0  0  0  0
    8.6902    0.1803   -0.9825 C   0  0  0  0  0  0  0  0  0  0  0  0
    8.0496   -0.3442    0.2586 C   0  0  0  0  0  0  0  0  0  0  0  0
    3.7910    1.1902    0.1277 C   0  0  0  0  0  0  0  0  0  0  0  0
    2.4630    1.1580    0.0169 N   0  0  0  0  0  0  0  0  0  0  0  0
   -5.8810    2.4894    0.2989 C   0  0  0  0  0  0  0  0  0  0  0  0
   -6.6074    3.6588    0.3313 C   0  0  0  0  0  0  0  0  0  0  0  0
   -7.8463    5.8572   -0.2127 H   0  0  0  0  0  0  0  0  0  0  0  0
   -6.4112    6.8590   -0.5283 H   0  0  0  0  0  0  0  0  0  0  0  0
   -6.8673    6.5037    1.2084 H   0  0  0  0  0  0  0  0  0  0  0  0
   -4.1835    5.8333   -0.2586 H   0  0  0  0  0  0  0  0  0  0  0  0
   -2.8851    3.8155   -0.3357 H   0  0  0  0  0  0  0  0  0  0  0  0
   -4.4897    0.3698   -0.0254 H   0  0  0  0  0  0  0  0  0  0  0  0
    0.5046    2.4519    0.5456 H   0  0  0  0  0  0  0  0  0  0  0  0
    0.6036   -2.2639    0.0098 H   0  0  0  0  0  0  0  0  0  0  0  0
   -0.7660   -4.0300    0.0311 H   0  0  0  0  0  0  0  0  0  0  0  0
   -2.9948   -2.3484    1.3189 H   0  0  0  0  0  0  0  0  0  0  0  0
   -1.7357   -3.2607    2.1819 H   0  0  0  0  0  0  0  0  0  0  0  0
   -3.8099   -4.5056    1.8705 H   0  0  0  0  0  0  0  0  0  0  0  0
   -2.3713   -5.3258    1.1104 H   0  0  0  0  0  0  0  0  0  0  0  0
   -4.7830   -4.8025   -0.1423 H   0  0  0  0  0  0  0  0  0  0  0  0
   -3.8349   -5.8645   -1.6859 H   0  0  0  0  0  0  0  0  0  0  0  0
   -4.0915   -3.1660   -1.9839 H   0  0  0  0  0  0  0  0  0  0  0  0
   -4.1150   -2.4042   -0.3839 H   0  0  0  0  0  0  0  0  0  0  0  0
   -1.9781   -1.9653   -1.7360 H   0  0  0  0  0  0  0  0  0  0  0  0
   -1.8129   -3.7137   -1.9347 H   0  0  0  0  0  0  0  0  0  0  0  0
    1.7212   -1.5994    1.7281 H   0  0  0  0  0  0  0  0  0  0  0  0
    4.1135   -1.6246    1.9296 H   0  0  0  0  0  0  0  0  0  0  0  0
    6.2775    1.3216    0.9410 H   0  0  0  0  0  0  0  0  0  0  0  0
    6.2026   -0.1216    1.9558 H   0  0  0  0  0  0  0  0  0  0  0  0
    6.5894   -1.1466   -2.0191 H   0  0  0  0  0  0  0  0  0  0  0  0
    5.4510    0.1603   -1.6731 H   0  0  0  0  0  0  0  0  0  0  0  0
    7.7109    0.6432   -2.8609 H   0  0  0  0  0  0  0  0  0  0  0  0
    7.2852    1.7835   -1.4756 H   0  0  0  0  0  0  0  0  0  0  0  0
    9.1401   -0.6346   -1.6197 H   0  0  0  0  0  0  0  0  0  0  0  0
    9.4502    0.9707   -0.7815 H   0  0  0  0  0  0  0  0  0  0  0  0
    8.2260    0.3683    1.0793 H   0  0  0  0  0  0  0  0  0  0  0  0
    8.5455   -1.3058    0.5134 H   0  0  0  0  0  0  0  0  0  0  0  0
    4.3770    2.0154   -0.3330 H   0  0  0  0  0  0  0  0  0  0  0  0
   -6.4040    1.5653    0.4630 H   0  0  0  0  0  0  0  0  0  0  0  0
   -7.6838    3.6025    0.5212 H   0  0  0  0  0  0  0  0  0  0  0  0
  1  2  1  0
  2  3  2  0
  3  4  1  0
  4  5  2  0
  5  6  1  0
  6  7  1  0
  7  8  2  0
  8  9  1  0
  9 10  2  0
 10 11  1  0
 11 12  1  0
 12 13  1  0
 13 14  1  0
 14 15  1  0
 15 16  1  0
 16 17  1  0
 16 18  1  0
 18 19  1  0
 11 20  2  0
 10 21  1  0
 21 22  2  0
 22 23  1  0
 23 24  2  0
 24 25  1  0
 25 26  1  0
 26 27  1  0
 27 28  1  0
 28 29  1  0
 29 30  1  0
 24 31  1  0
 31 32  2  0
  5 33  1  0
 33 34  2  0
 34  2  1  0
 20  7  1  0
 32 21  1  0
 19 13  1  0
 30 26  1  0
  1 35  1  0
  1 36  1  0
  1 37  1  0
  3 38  1  0
  4 39  1  0
  6 40  1  0
  9 41  1  0
 12 42  1  0
 13 43  1  6
 14 44  1  0
 14 45  1  0
 15 46  1  0
 15 47  1  0
 16 48  1  1
 17 49  1  0
 18 50  1  0
 18 51  1  0
 19 52  1  0
 19 53  1  0
 22 54  1  0
 23 55  1  0
 25 56  1  0
 25 57  1  0
 27 58  1  0
 27 59  1  0
 28 60  1  0
 28 61  1  0
 29 62  1  0
 29 63  1  0
 30 64  1  0
 30 65  1  0
 31 66  1  0
 33 67  1  0
 34 68  1  0
M  END
$$$$
[H]O[C@]1([H])C([H])([H])C([H])([H])[C@@]([H])(n2nc(C#Cc3c([H])c(N([H])C(=O)c4c([H])c([H])c(C([H])([H])[H])c(C(F)(F)F)c4[H])c([H])c([H])c3C([H])([H])[H])c3c(N([H])[H])nc([H])nc32)C([H])([H])C1([H])[H]
     RDKit          3D

 67 71  0  0  0  0  0  0  0  0999 V2000
   -0.6331    3.9570    0.4914 C   0  0  0  0  0  0  0  0  0  0  0  0
    0.6761    3.2758    0.3301 C   0  0  0  0  0  0  0  0  0  0  0  0
    1.8403    4.0067    0.3751 C   0  0  0  0  0  0  0  0  0  0  0  0
    3.0469    3.3942    0.2287 C   0  0  0  0  0  0  0  0  0  0  0  0
    3.1203    2.0085    0.0300 C   0  0  0  0  0  0  0  0  0  0  0  0
    4.3790    1.4046   -0.1450 N   0  0  0  0  0  0  0  0  0  0  0  0
    4.6452    0.0531    0.0523 C   0  0  0  0  0  0  0  0  0  0  0  0
    3.8296   -0.8252    0.4182 O   0  0  0  0  0  0  0  0  0  0  0  0
    6.0248   -0.4356   -0.1840 C   0  0  0  0  0  0  0  0  0  0  0  0
    6.4075   -1.6321    0.3722 C   0  0  0  0  0  0  0  0  0  0  0  0
    7.6755   -2.1140    0.1664 C   0  0  0  0  0  0  0  0  0  0  0  0
    8.6240   -1.4483   -0.5913 C   0  0  0  0  0  0  0  0  0  0  0  0
    9.9881   -1.9982   -0.7935 C   0  0  0  0  0  0  0  0  0  0  0  0
    8.2118   -0.2460   -1.1395 C   0  0  0  0  0  0  0  0  0  0  0  0
    6.9319    0.2582   -0.9425 C   0  0  0  0  0  0  0  0  0  0  0  0
    9.1981    0.5107   -1.9649 C   0  0  0  0  0  0  0  0  0  0  0  0
    9.6093   -0.2334   -3.0442 F   0  0  0  0  0  0  0  0  0  0  0  0
   10.2272    0.9943   -1.1983 F   0  0  0  0  0  0  0  0  0  0  0  0
    8.5519    1.6343   -2.4845 F   0  0  0  0  0  0  0  0  0  0  0  0
    1.9437    1.3095   -0.0104 C   0  0  0  0  0  0  0  0  0  0  0  0
    0.6849    1.9155    0.1378 C   0  0  0  0  0  0  0  0  0  0  0  0
   -0.5288    1.1372    0.0873 C   0  0  0  0  0  0  0  0  0  0  0  0
   -1.5627    0.4995    0.0398 C   0  0  0  0  0  0  0  0  0  0  0  0
   -2.7952   -0.2305   -0.0172 C   0  0  0  0  0  0  0  0  0  0  0  0
   -3.9797    0.0657    0.5425 N   0  0  0  0  0  0  0  0  0  0  0  0
   -4.8906   -0.8525    0.2663 N   0  0  0  0  0  0  0  0  0  0  0  0
   -6.2871   -0.8774    0.6950 C   0  0  1  0  0  0  0  0  0  0  0  0
   -6.2941   -0.5393    2.1678 C   0  0  0  0  0  0  0  0  0  0  0  0
   -7.6568   -0.1763    2.6815 C   0  0  0  0  0  0  0  0  0  0  0  0
   -8.7556   -0.3868    1.6803 C   0  0  2  0  0  0  0  0  0  0  0  0
   -9.0703   -1.7439    1.5539 O   0  0  0  0  0  0  0  0  0  0  0  0
   -8.4770    0.2334    0.3414 C   0  0  0  0  0  0  0  0  0  0  0  0
   -7.0167    0.2374   -0.0198 C   0  0  0  0  0  0  0  0  0  0  0  0
   -4.2682   -1.7805   -0.5040 C   0  0  0  0  0  0  0  0  0  0  0  0
   -4.7077   -2.9105   -1.0608 N   0  0  0  0  0  0  0  0  0  0  0  0
   -3.8642   -3.6623   -1.7926 C   0  0  0  0  0  0  0  0  0  0  0  0
   -2.5766   -3.3181   -1.9902 N   0  0  0  0  0  0  0  0  0  0  0  0
   -2.0743   -2.1802   -1.4486 C   0  0  0  0  0  0  0  0  0  0  0  0
   -0.7241   -1.8190   -1.6561 N   0  0  0  0  0  0  0  0  0  0  0  0
   -2.9463   -1.4164   -0.7002 C   0  0  0  0  0  0  0  0  0  0  0  0
   -1.3702    3.5767   -0.2642 H   0  0  0  0  0  0  0  0  0  0  0  0
   -0.9957    3.7949    1.5347 H   0  0  0  0  0  0  0  0  0  0  0  0
   -0.4922    5.0320    0.2891 H   0  0  0  0  0  0  0  0  0  0  0  0
    1.8474    5.0855    0.5267 H   0  0  0  0  0  0  0  0  0  0  0  0
    3.9906    3.9226    0.2567 H   0  0  0  0  0  0  0  0  0  0  0  0
    5.1662    2.0503   -0.4492 H   0  0  0  0  0  0  0  0  0  0  0  0
    5.7123   -2.1965    0.9726 H   0  0  0  0  0  0  0  0  0  0  0  0
    7.9683   -3.0628    0.6117 H   0  0  0  0  0  0  0  0  0  0  0  0
   10.7386   -1.2978   -0.3933 H   0  0  0  0  0  0  0  0  0  0  0  0
   10.0290   -2.9625   -0.2057 H   0  0  0  0  0  0  0  0  0  0  0  0
   10.1850   -2.3196   -1.8377 H   0  0  0  0  0  0  0  0  0  0  0  0
    6.6762    1.2082   -1.4081 H   0  0  0  0  0  0  0  0  0  0  0  0
    1.9123    0.2400   -0.1751 H   0  0  0  0  0  0  0  0  0  0  0  0
   -6.6968   -1.8592    0.4605 H   0  0  0  0  0  0  0  0  0  0  0  0
   -5.6239    0.3401    2.2931 H   0  0  0  0  0  0  0  0  0  0  0  0
   -5.8294   -1.3814    2.7078 H   0  0  0  0  0  0  0  0  0  0  0  0
   -7.6817    0.8685    3.0661 H   0  0  0  0  0  0  0  0  0  0  0  0
   -7.8709   -0.8316    3.5517 H   0  0  0  0  0  0  0  0  0  0  0  0
   -9.6647    0.1052    2.0856 H   0  0  0  0  0  0  0  0  0  0  0  0
   -8.4688   -2.3228    2.0606 H   0  0  0  0  0  0  0  0  0  0  0  0
   -8.8704    1.2654    0.2395 H   0  0  0  0  0  0  0  0  0  0  0  0
   -9.0098   -0.3753   -0.4271 H   0  0  0  0  0  0  0  0  0  0  0  0
   -6.8755    0.1679   -1.1145 H   0  0  0  0  0  0  0  0  0  0  0  0
   -6.5888    1.2097    0.3111 H   0  0  0  0  0  0  0  0  0  0  0  0
   -4.2565   -4.5639   -2.2235 H   0  0  0  0  0  0  0  0  0  0  0  0
   -0.4104   -1.3297   -2.5113 H   0  0  0  0  0  0  0  0  0  0  0  0
   -0.0271   -2.0518   -0.9280 H   0  0  0  0  0  0  0  0  0  0  0  0
  1  2  1  0
  2  3  2  0
  3  4  1  0
  4  5  2  0
  5  6  1  0
  6  7  1  0
  7  8  2  0
  7  9  1  0
  9 10  2  0
 10 11  1  0
 11 12  2  0
 12 13  1  0
 12 14  1  0
 14 15  2  0
 14 16  1  0
 16 17  1  0
 16 18  1  0
 16 19  1  0
  5 20  1  0
 20 21  2  0
 21 22  1  0
 22 23  3  0
 23 24  1  0
 24 25  2  0
 25 26  1  0
 26 27  1  0
 27 28  1  0
 28 29  1  0
 29 30  1  0
 30 31  1  0
 30 32  1  0
 32 33  1  0
 26 34  1  0
 34 35  2  0
 35 36  1  0
 36 37  2  0
 37 38  1  0
 38 39  1  0
 38 40  2  0
 21  2  1  0
 40 24  1  0
 15  9  1  0
 33 27  1  0
 40 34  1  0
  1 41  1  0
  1 42  1  0
  1 43  1  0
  3 44  1  0
  4 45  1  0
  6 46  1  0
 10 47  1  0
 11 48  1  0
 13 49  1  0
 13 50  1  0
 13 51  1  0
 15 52  1  0
 20 53  1  0
 27 54  1  1
 28 55  1  0
 28 56  1  0
 29 57  1  0
 29 58  1  0
 30 59  1  1
 31 60  1  0
 32 61  1  0
 32 62  1  0
 33 63  1  0
 33 64  1  0
 36 65  1  0
 39 66  1  0
 39 67  1  0
M  END
$$$$
[H]c1nc(N([H])[H])c2c(-c3c([H])c([H])c(N([H])C(=O)c4c([H])c(-c5c([H])c([H])nn5C([H])([H])[H])c(C([H])([H])[H])n(-c5c([H])nc([H])c([H])c5[H])c4=O)c([H])c3[H])c([H])c(C3([H])C([H])([H])C([H])([H])N(C(=O)C([H])(C([H])([H])[H])C([H])([H])[H])C([H])([H])C3([H])[H])n2n1
     RDKit          3D

 88 94  0  0  0  0  0  0  0  0999 V2000
   10.7956    0.6693    2.3377 C   0  0  0  0  0  0  0  0  0  0  0  0
   10.7592    0.3624    0.8727 C   0  0  0  0  0  0  0  0  0  0  0  0
   10.2975    1.5829    0.0993 C   0  0  0  0  0  0  0  0  0  0  0  0
    9.9558   -0.8360    0.5300 C   0  0  0  0  0  0  0  0  0  0  0  0
   10.5458   -1.8377   -0.0220 O   0  0  0  0  0  0  0  0  0  0  0  0
    8.5667   -0.9828    0.7600 N   0  0  0  0  0  0  0  0  0  0  0  0
    7.7360    0.0158    1.3598 C   0  0  0  0  0  0  0  0  0  0  0  0
    6.6168    0.4480    0.4177 C   0  0  0  0  0  0  0  0  0  0  0  0
    6.2160   -0.7089   -0.4772 C   0  0  0  0  0  0  0  0  0  0  0  0
    6.4375   -1.9976    0.3281 C   0  0  0  0  0  0  0  0  0  0  0  0
    7.9263   -2.2457    0.3514 C   0  0  0  0  0  0  0  0  0  0  0  0
    4.8142   -0.6287   -0.9444 C   0  0  0  0  0  0  0  0  0  0  0  0
    3.6567   -0.5031   -0.2256 C   0  0  0  0  0  0  0  0  0  0  0  0
    2.6051   -0.4769   -1.1137 C   0  0  0  0  0  0  0  0  0  0  0  0
    1.2388   -0.3164   -0.7061 C   0  0  0  0  0  0  0  0  0  0  0  0
    0.4471    0.7452   -1.0742 C   0  0  0  0  0  0  0  0  0  0  0  0
   -0.8892    0.8396   -0.6586 C   0  0  0  0  0  0  0  0  0  0  0  0
   -1.4950   -0.0913    0.1241 C   0  0  0  0  0  0  0  0  0  0  0  0
   -2.8496   -0.0377    0.5180 N   0  0  0  0  0  0  0  0  0  0  0  0
   -3.8891    0.5084   -0.2581 C   0  0  0  0  0  0  0  0  0  0  0  0
   -3.5641    0.9742   -1.4210 O   0  0  0  0  0  0  0  0  0  0  0  0
   -5.2885    0.6019    0.1070 C   0  0  0  0  0  0  0  0  0  0  0  0
   -6.2342    0.7921   -0.9115 C   0  0  0  0  0  0  0  0  0  0  0  0
   -7.6025    0.8597   -0.6745 C   0  0  0  0  0  0  0  0  0  0  0  0
   -8.5013    0.9742   -1.8195 C   0  0  0  0  0  0  0  0  0  0  0  0
   -9.7698    1.5610   -1.8150 C   0  0  0  0  0  0  0  0  0  0  0  0
  -10.3264    1.3707   -3.0821 C   0  0  0  0  0  0  0  0  0  0  0  0
   -9.4376    0.7073   -3.8001 N   0  0  0  0  0  0  0  0  0  0  0  0
   -8.3375    0.4647   -3.0452 N   0  0  0  0  0  0  0  0  0  0  0  0
   -7.2461   -0.3027   -3.6049 C   0  0  0  0  0  0  0  0  0  0  0  0
   -7.9780    0.7278    0.6389 C   0  0  0  0  0  0  0  0  0  0  0  0
   -9.4256    0.7212    0.9960 C   0  0  0  0  0  0  0  0  0  0  0  0
   -7.0890    0.5441    1.6620 N   0  0  0  0  0  0  0  0  0  0  0  0
   -7.5689    0.4250    2.9995 C   0  0  0  0  0  0  0  0  0  0  0  0
   -7.6120   -0.8060    3.6052 C   0  0  0  0  0  0  0  0  0  0  0  0
   -8.0696   -0.9397    4.9019 C   0  0  0  0  0  0  0  0  0  0  0  0
   -8.4821    0.1894    5.5747 C   0  0  0  0  0  0  0  0  0  0  0  0
   -8.4256    1.3796    4.9487 N   0  0  0  0  0  0  0  0  0  0  0  0
   -7.9847    1.5443    3.6850 C   0  0  0  0  0  0  0  0  0  0  0  0
   -5.7901    0.4877    1.3654 C   0  0  0  0  0  0  0  0  0  0  0  0
   -5.0206    0.3180    2.3528 O   0  0  0  0  0  0  0  0  0  0  0  0
   -0.6829   -1.1711    0.4980 C   0  0  0  0  0  0  0  0  0  0  0  0
    0.6181   -1.2847    0.1068 C   0  0  0  0  0  0  0  0  0  0  0  0
    3.1348   -0.5883   -2.3669 C   0  0  0  0  0  0  0  0  0  0  0  0
    2.5950   -0.6331   -3.6443 C   0  0  0  0  0  0  0  0  0  0  0  0
    1.1869   -0.5674   -3.7813 N   0  0  0  0  0  0  0  0  0  0  0  0
    3.3993   -0.7608   -4.7242 N   0  0  0  0  0  0  0  0  0  0  0  0
    4.7296   -0.8481   -4.5964 C   0  0  0  0  0  0  0  0  0  0  0  0
    5.2255   -0.8041   -3.3558 N   0  0  0  0  0  0  0  0  0  0  0  0
    4.5007   -0.6813   -2.2601 N   0  0  0  0  0  0  0  0  0  0  0  0
   11.8414    0.6045    2.6913 H   0  0  0  0  0  0  0  0  0  0  0  0
   10.4347    1.6918    2.5660 H   0  0  0  0  0  0  0  0  0  0  0  0
   10.2360   -0.0904    2.9491 H   0  0  0  0  0  0  0  0  0  0  0  0
   11.8054    0.1522    0.5372 H   0  0  0  0  0  0  0  0  0  0  0  0
    9.5112    1.3060   -0.6162 H   0  0  0  0  0  0  0  0  0  0  0  0
    9.9632    2.3933    0.7977 H   0  0  0  0  0  0  0  0  0  0  0  0
   11.1505    2.0004   -0.4520 H   0  0  0  0  0  0  0  0  0  0  0  0
    7.2532   -0.4302    2.2549 H   0  0  0  0  0  0  0  0  0  0  0  0
    8.2776    0.9166    1.6525 H   0  0  0  0  0  0  0  0  0  0  0  0
    6.9689    1.3067   -0.1800 H   0  0  0  0  0  0  0  0  0  0  0  0
    5.7842    0.8015    1.0538 H   0  0  0  0  0  0  0  0  0  0  0  0
    6.9483   -0.7614   -1.3053 H   0  0  0  0  0  0  0  0  0  0  0  0
    5.9636   -2.8224   -0.2294 H   0  0  0  0  0  0  0  0  0  0  0  0
    6.0570   -1.8908    1.3543 H   0  0  0  0  0  0  0  0  0  0  0  0
    8.2317   -2.3669   -0.7279 H   0  0  0  0  0  0  0  0  0  0  0  0
    8.2371   -3.0873    0.9700 H   0  0  0  0  0  0  0  0  0  0  0  0
    3.5997   -0.4382    0.8452 H   0  0  0  0  0  0  0  0  0  0  0  0
    0.8656    1.5522   -1.6996 H   0  0  0  0  0  0  0  0  0  0  0  0
   -1.4402    1.7354   -0.9846 H   0  0  0  0  0  0  0  0  0  0  0  0
   -3.0587   -0.4587    1.4634 H   0  0  0  0  0  0  0  0  0  0  0  0
   -5.8403    0.9272   -1.8999 H   0  0  0  0  0  0  0  0  0  0  0  0
  -10.2559    2.0844   -1.0305 H   0  0  0  0  0  0  0  0  0  0  0  0
  -11.2996    1.7092   -3.3954 H   0  0  0  0  0  0  0  0  0  0  0  0
   -6.8318   -0.9500   -2.8099 H   0  0  0  0  0  0  0  0  0  0  0  0
   -6.4639    0.3266   -4.0195 H   0  0  0  0  0  0  0  0  0  0  0  0
   -7.6532   -1.0177   -4.3828 H   0  0  0  0  0  0  0  0  0  0  0  0
   -9.7761    1.7483    1.1895 H   0  0  0  0  0  0  0  0  0  0  0  0
  -10.0655    0.1649    0.3187 H   0  0  0  0  0  0  0  0  0  0  0  0
   -9.5337    0.2126    2.0025 H   0  0  0  0  0  0  0  0  0  0  0  0
   -7.2889   -1.7041    3.0814 H   0  0  0  0  0  0  0  0  0  0  0  0
   -8.1088   -1.8883    5.3873 H   0  0  0  0  0  0  0  0  0  0  0  0
   -8.8556    0.1351    6.6097 H   0  0  0  0  0  0  0  0  0  0  0  0
   -7.9368    2.4931    3.1734 H   0  0  0  0  0  0  0  0  0  0  0  0
   -1.1303   -1.9270    1.1193 H   0  0  0  0  0  0  0  0  0  0  0  0
    1.2497   -2.1320    0.4030 H   0  0  0  0  0  0  0  0  0  0  0  0
    0.7013    0.2378   -4.2338 H   0  0  0  0  0  0  0  0  0  0  0  0
    0.6140   -1.3472   -3.4188 H   0  0  0  0  0  0  0  0  0  0  0  0
    5.4000   -0.9517   -5.4565 H   0  0  0  0  0  0  0  0  0  0  0  0
  1  2  1  0
  2  3  1  0
  2  4  1  0
  4  5  2  0
  4  6  1  0
  6  7  1  0
  7  8  1  0
  8  9  1  0
  9 10  1  0
 10 11  1  0
  9 12  1  0
 12 13  2  0
 13 14  1  0
 14 15  1  0
 15 16  2  0
 16 17  1  0
 17 18  2  0
 18 19  1  0
 19 20  1  0
 20 21  2  0
 20 22  1  0
 22 23  2  0
 23 24  1  0
 24 25  1  0
 25 26  2  0
 26 27  1  0
 27 28  2  0
 28 29  1  0
 29 30  1  0
 24 31  2  0
 31 32  1  0
 31 33  1  0
 33 34  1  0
 34 35  2  0
 35 36  1  0
 36 37  2  0
 37 38  1  0
 38 39  2  0
 33 40  1  0
 40 41  2  0
 18 42  1  0
 42 43  2  0
 14 44  2  0
 44 45  1  0
 45 46  1  0
 45 47  2  0
 47 48  1  0
 48 49  2  0
 49 50  1  0
 11  6  1  0
 50 12  1  0
 43 15  1  0
 50 44  1  0
 40 22  1  0
 29 25  1  0
 39 34  1  0
  1 51  1  0
  1 52  1  0
  1 53  1  0
  2 54  1  0
  3 55  1  0
  3 56  1  0
  3 57  1  0
  7 58  1  0
  7 59  1  0
  8 60  1  0
  8 61  1  0
  9 62  1  0
 10 63  1  0
 10 64  1  0
 11 65  1  0
 11 66  1  0
 13 67  1  0
 16 68  1  0
 17 69  1  0
 19 70  1  0
 23 71  1  0
 26 72  1  0
 27 73  1  0
 30 74  1  0
 30 75  1  0
 30 76  1  0
 32 77  1  0
 32 78  1  0
 32 79  1  0
 35 80  1  0
 36 81  1  0
 37 82  1  0
 39 83  1  0
 42 84  1  0
 43 85  1  0
 46 86  1  0
 46 87  1  0
 48 88  1  0
M  END
$$$$
[H]O[C@]1([H])C([H])([H])C([H])([H])[C@@]([H])(n2c([H])c(-c3c([H])c([H])c(N4C([H])([H])C([H])([H])N(C([H])([H])[H])C([H])([H])C4([H])[H])c([H])c3[H])c3c([H])nc(N([H])C([H])([H])C([H])([H])C([H])([H])C([H])([H])[H])nc32)C([H])([H])C1([H])[H]
     RDKit          3D

 72 76  0  0  0  0  0  0  0  0999 V2000
   -6.3227    4.5332   -0.4304 C   0  0  0  0  0  0  0  0  0  0  0  0
   -7.2501    3.4179   -0.1234 C   0  0  0  0  0  0  0  0  0  0  0  0
   -6.8713    2.5755    1.0368 C   0  0  0  0  0  0  0  0  0  0  0  0
   -5.5850    1.8464    0.9762 C   0  0  0  0  0  0  0  0  0  0  0  0
   -4.3802    2.5862    0.9053 N   0  0  0  0  0  0  0  0  0  0  0  0
   -3.1535    1.8679    0.7053 C   0  0  0  0  0  0  0  0  0  0  0  0
   -1.9843    2.5269    0.6310 N   0  0  0  0  0  0  0  0  0  0  0  0
   -0.8040    1.9149    0.4436 C   0  0  0  0  0  0  0  0  0  0  0  0
   -0.8039    0.5383    0.3225 C   0  0  0  0  0  0  0  0  0  0  0  0
    0.2081   -0.3840    0.1255 C   0  0  0  0  0  0  0  0  0  0  0  0
   -0.4051   -1.6119    0.0859 C   0  0  0  0  0  0  0  0  0  0  0  0
   -1.7341   -1.4955    0.2474 N   0  0  0  0  0  0  0  0  0  0  0  0
   -2.7430   -2.5355    0.2699 C   0  0  1  0  0  0  0  0  0  0  0  0
   -3.6564   -2.4004   -0.9241 C   0  0  0  0  0  0  0  0  0  0  0  0
   -4.5690   -3.5951   -1.0330 C   0  0  0  0  0  0  0  0  0  0  0  0
   -3.7359   -4.8462   -1.1317 C   0  0  2  0  0  0  0  0  0  0  0  0
   -4.4755   -5.9673   -1.4319 O   0  0  0  0  0  0  0  0  0  0  0  0
   -3.0252   -5.0197    0.2039 C   0  0  0  0  0  0  0  0  0  0  0  0
   -2.0434   -3.8716    0.3172 C   0  0  0  0  0  0  0  0  0  0  0  0
   -1.9939   -0.1614    0.3956 C   0  0  0  0  0  0  0  0  0  0  0  0
   -3.1300    0.5325    0.5852 N   0  0  0  0  0  0  0  0  0  0  0  0
    1.6452   -0.0847   -0.0074 C   0  0  0  0  0  0  0  0  0  0  0  0
    2.2904    0.7726    0.8574 C   0  0  0  0  0  0  0  0  0  0  0  0
    3.6348    1.0522    0.7277 C   0  0  0  0  0  0  0  0  0  0  0  0
    4.4048    0.4765   -0.2902 C   0  0  0  0  0  0  0  0  0  0  0  0
    3.7509   -0.3743   -1.1438 C   0  0  0  0  0  0  0  0  0  0  0  0
    2.3866   -0.6592   -1.0134 C   0  0  0  0  0  0  0  0  0  0  0  0
    5.7835    0.7875   -0.3968 N   0  0  0  0  0  0  0  0  0  0  0  0
    6.3824    1.7728    0.4922 C   0  0  0  0  0  0  0  0  0  0  0  0
    7.6868    2.2531   -0.1045 C   0  0  0  0  0  0  0  0  0  0  0  0
    8.6329    1.1680   -0.2699 N   0  0  0  0  0  0  0  0  0  0  0  0
    9.5035    1.0368    0.8829 C   0  0  0  0  0  0  0  0  0  0  0  0
    8.0002   -0.0691   -0.6259 C   0  0  0  0  0  0  0  0  0  0  0  0
    6.6797    0.1798   -1.3526 C   0  0  0  0  0  0  0  0  0  0  0  0
   -5.4011    4.2262   -0.9791 H   0  0  0  0  0  0  0  0  0  0  0  0
   -6.8189    5.3244   -1.0811 H   0  0  0  0  0  0  0  0  0  0  0  0
   -6.0529    5.0931    0.4845 H   0  0  0  0  0  0  0  0  0  0  0  0
   -7.3518    2.7298   -1.0219 H   0  0  0  0  0  0  0  0  0  0  0  0
   -8.2719    3.8556   -0.0059 H   0  0  0  0  0  0  0  0  0  0  0  0
   -6.9530    3.2225    1.9557 H   0  0  0  0  0  0  0  0  0  0  0  0
   -7.6946    1.8114    1.2023 H   0  0  0  0  0  0  0  0  0  0  0  0
   -5.4837    1.1621    1.8781 H   0  0  0  0  0  0  0  0  0  0  0  0
   -5.6511    1.1812    0.0501 H   0  0  0  0  0  0  0  0  0  0  0  0
   -4.3282    3.6014    1.0063 H   0  0  0  0  0  0  0  0  0  0  0  0
    0.1226    2.4588    0.3852 H   0  0  0  0  0  0  0  0  0  0  0  0
    0.1306   -2.5443   -0.0580 H   0  0  0  0  0  0  0  0  0  0  0  0
   -3.3464   -2.4570    1.2076 H   0  0  0  0  0  0  0  0  0  0  0  0
   -4.3163   -1.5114   -0.7139 H   0  0  0  0  0  0  0  0  0  0  0  0
   -3.1023   -2.1883   -1.8391 H   0  0  0  0  0  0  0  0  0  0  0  0
   -5.2448   -3.4638   -1.8941 H   0  0  0  0  0  0  0  0  0  0  0  0
   -5.1531   -3.6408   -0.0708 H   0  0  0  0  0  0  0  0  0  0  0  0
   -2.9239   -4.6427   -1.8751 H   0  0  0  0  0  0  0  0  0  0  0  0
   -4.1927   -6.6969   -0.8213 H   0  0  0  0  0  0  0  0  0  0  0  0
   -3.7585   -4.9404    1.0429 H   0  0  0  0  0  0  0  0  0  0  0  0
   -2.4598   -5.9603    0.2313 H   0  0  0  0  0  0  0  0  0  0  0  0
   -1.4935   -3.9107    1.2824 H   0  0  0  0  0  0  0  0  0  0  0  0
   -1.2819   -3.9793   -0.4782 H   0  0  0  0  0  0  0  0  0  0  0  0
    1.7333    1.2485    1.6722 H   0  0  0  0  0  0  0  0  0  0  0  0
    4.1447    1.7246    1.4063 H   0  0  0  0  0  0  0  0  0  0  0  0
    4.3064   -0.8473   -1.9558 H   0  0  0  0  0  0  0  0  0  0  0  0
    1.9080   -1.3457   -1.7200 H   0  0  0  0  0  0  0  0  0  0  0  0
    5.7023    2.6545    0.4894 H   0  0  0  0  0  0  0  0  0  0  0  0
    6.4874    1.4250    1.5184 H   0  0  0  0  0  0  0  0  0  0  0  0
    8.1355    2.9603    0.6211 H   0  0  0  0  0  0  0  0  0  0  0  0
    7.5268    2.7822   -1.0438 H   0  0  0  0  0  0  0  0  0  0  0  0
    9.2803    1.8751    1.5785 H   0  0  0  0  0  0  0  0  0  0  0  0
    9.4273    0.0524    1.3672 H   0  0  0  0  0  0  0  0  0  0  0  0
   10.5477    1.1794    0.5517 H   0  0  0  0  0  0  0  0  0  0  0  0
    8.6208   -0.6894   -1.3252 H   0  0  0  0  0  0  0  0  0  0  0  0
    7.7914   -0.6519    0.2778 H   0  0  0  0  0  0  0  0  0  0  0  0
    6.8084    0.9068   -2.1820 H   0  0  0  0  0  0  0  0  0  0  0  0
    6.2836   -0.7680   -1.7103 H   0  0  0  0  0  0  0  0  0  0  0  0
  1  2  1  0
  2  3  1  0
  3  4  1  0
  4  5  1  0
  5  6  1  0
  6  7  2  0
  7  8  1  0
  8  9  2  0
  9 10  1  0
 10 11  2  0
 11 12  1  0
 12 13  1  0
 13 14  1  0
 14 15  1  0
 15 16  1  0
 16 17  1  0
 16 18  1  0
 18 19  1  0
 12 20  1  0
 20 21  2  0
 10 22  1  0
 22 23  2  0
 23 24  1  0
 24 25  2  0
 25 26  1  0
 26 27  2  0
 25 28  1  0
 28 29  1  0
 29 30  1  0
 30 31  1  0
 31 32  1  0
 31 33  1  0
 33 34  1  0
 21  6  1  0
 27 22  1  0
 34 28  1  0
 20  9  1  0
 19 13  1  0
  1 35  1  0
  1 36  1  0
  1 37  1  0
  2 38  1  0
  2 39  1  0
  3 40  1  0
  3 41  1  0
  4 42  1  0
  4 43  1  0
  5 44  1  0
  8 45  1  0
 11 46  1  0
 13 47  1  1
 14 48  1  0
 14 49  1  0
 15 50  1  0
 15 51  1  0
 16 52  1  6
 17 53  1  0
 18 54  1  0
 18 55  1  0
 19 56  1  0
 19 57  1  0
 23 58  1  0
 24 59  1  0
 26 60  1  0
 27 61  1  0
 29 62  1  0
 29 63  1  0
 30 64  1  0
 30 65  1  0
 32 66  1  0
 32 67  1  0
 32 68  1  0
 33 69  1  0
 33 70  1  0
 34 71  1  0
 34 72  1  0
M  END
$$$$
[H]O[C@]1([H])C([H])([H])C([H])([H])[C@@]([H])(N([H])c2nc(N([H])C([H])([H])C([H])([H])C([H])([H])C([H])([H])[H])nc([H])c2-c2nc([H])c(C([H])([H])N(C([H])([H])[H])C([H])([H])[H])c([H])c2[H])C([H])([H])C1([H])[H]
     RDKit          3D

 63 65  0  0  0  0  0  0  0  0999 V2000
   -6.6226   -3.7209    0.7832 C   0  0  0  0  0  0  0  0  0  0  0  0
   -5.1924   -3.7718    1.3084 C   0  0  0  0  0  0  0  0  0  0  0  0
   -4.4997   -2.4479    1.0446 C   0  0  0  0  0  0  0  0  0  0  0  0
   -4.4670   -2.1595   -0.4313 C   0  0  0  0  0  0  0  0  0  0  0  0
   -3.8094   -0.9068   -0.6558 N   0  0  0  0  0  0  0  0  0  0  0  0
   -2.3933   -0.8119   -0.4479 C   0  0  0  0  0  0  0  0  0  0  0  0
   -1.6415   -1.8539   -0.0629 N   0  0  0  0  0  0  0  0  0  0  0  0
   -0.3313   -1.8148    0.1374 C   0  0  0  0  0  0  0  0  0  0  0  0
    0.3399   -0.5984   -0.0640 C   0  0  0  0  0  0  0  0  0  0  0  0
   -0.3877    0.4781   -0.4489 C   0  0  0  0  0  0  0  0  0  0  0  0
    0.1418    1.8225   -0.5702 N   0  0  0  0  0  0  0  0  0  0  0  0
   -0.7416    2.8711   -1.0504 C   0  0  1  0  0  0  0  0  0  0  0  0
   -1.8678    3.0419   -0.0731 C   0  0  0  0  0  0  0  0  0  0  0  0
   -2.0204    4.5051    0.2572 C   0  0  0  0  0  0  0  0  0  0  0  0
   -2.0663    5.3116   -0.9985 C   0  0  2  0  0  0  0  0  0  0  0  0
   -3.2281    5.0422   -1.7369 O   0  0  0  0  0  0  0  0  0  0  0  0
   -0.8592    5.1468   -1.8727 C   0  0  0  0  0  0  0  0  0  0  0  0
    0.0648    4.1295   -1.2287 C   0  0  0  0  0  0  0  0  0  0  0  0
   -1.7359    0.3330   -0.6307 N   0  0  0  0  0  0  0  0  0  0  0  0
    1.7768   -0.5956    0.1768 C   0  0  0  0  0  0  0  0  0  0  0  0
    2.6736    0.1075   -0.5735 C   0  0  0  0  0  0  0  0  0  0  0  0
    4.0311   -0.0521   -0.2895 C   0  0  0  0  0  0  0  0  0  0  0  0
    4.4401   -0.9062    0.7282 C   0  0  0  0  0  0  0  0  0  0  0  0
    5.8746   -1.0940    1.0571 C   0  0  0  0  0  0  0  0  0  0  0  0
    6.4219   -2.0791    0.1691 N   0  0  0  0  0  0  0  0  0  0  0  0
    7.8257   -2.2484    0.4960 C   0  0  0  0  0  0  0  0  0  0  0  0
    5.6990   -3.3224    0.2138 C   0  0  0  0  0  0  0  0  0  0  0  0
    3.5064   -1.6025    1.4653 C   0  0  0  0  0  0  0  0  0  0  0  0
    2.2280   -1.4269    1.1699 N   0  0  0  0  0  0  0  0  0  0  0  0
   -7.0021   -2.6912    0.8848 H   0  0  0  0  0  0  0  0  0  0  0  0
   -6.5953   -4.0564   -0.2723 H   0  0  0  0  0  0  0  0  0  0  0  0
   -7.2415   -4.3808    1.3958 H   0  0  0  0  0  0  0  0  0  0  0  0
   -5.2392   -3.9154    2.3877 H   0  0  0  0  0  0  0  0  0  0  0  0
   -4.6156   -4.5737    0.8376 H   0  0  0  0  0  0  0  0  0  0  0  0
   -3.5144   -2.4304    1.4935 H   0  0  0  0  0  0  0  0  0  0  0  0
   -5.0763   -1.6156    1.5496 H   0  0  0  0  0  0  0  0  0  0  0  0
   -3.8674   -2.9452   -0.9577 H   0  0  0  0  0  0  0  0  0  0  0  0
   -5.4913   -2.0911   -0.8672 H   0  0  0  0  0  0  0  0  0  0  0  0
   -4.3052   -0.0374   -0.9684 H   0  0  0  0  0  0  0  0  0  0  0  0
    0.2477   -2.6989    0.4547 H   0  0  0  0  0  0  0  0  0  0  0  0
    1.0893    2.0894   -0.3002 H   0  0  0  0  0  0  0  0  0  0  0  0
   -1.1568    2.5322   -2.0345 H   0  0  0  0  0  0  0  0  0  0  0  0
   -1.6322    2.4482    0.8451 H   0  0  0  0  0  0  0  0  0  0  0  0
   -2.8136    2.6772   -0.5255 H   0  0  0  0  0  0  0  0  0  0  0  0
   -1.1842    4.8333    0.8963 H   0  0  0  0  0  0  0  0  0  0  0  0
   -2.9880    4.6262    0.7969 H   0  0  0  0  0  0  0  0  0  0  0  0
   -2.1207    6.3948   -0.7006 H   0  0  0  0  0  0  0  0  0  0  0  0
   -4.0017    5.3616   -1.1856 H   0  0  0  0  0  0  0  0  0  0  0  0
   -0.3309    6.1097   -2.0268 H   0  0  0  0  0  0  0  0  0  0  0  0
   -1.1867    4.7714   -2.8838 H   0  0  0  0  0  0  0  0  0  0  0  0
    0.9268    3.9599   -1.9314 H   0  0  0  0  0  0  0  0  0  0  0  0
    0.4288    4.5256   -0.2810 H   0  0  0  0  0  0  0  0  0  0  0  0
    2.3908    0.7590   -1.4078 H   0  0  0  0  0  0  0  0  0  0  0  0
    4.7486    0.4998   -0.8749 H   0  0  0  0  0  0  0  0  0  0  0  0
    6.3998   -0.1308    1.0060 H   0  0  0  0  0  0  0  0  0  0  0  0
    5.9727   -1.4815    2.1138 H   0  0  0  0  0  0  0  0  0  0  0  0
    8.2587   -3.1802    0.1140 H   0  0  0  0  0  0  0  0  0  0  0  0
    8.3740   -1.3875    0.0185 H   0  0  0  0  0  0  0  0  0  0  0  0
    7.9534   -2.1226    1.5912 H   0  0  0  0  0  0  0  0  0  0  0  0
    6.2734   -4.1404   -0.2942 H   0  0  0  0  0  0  0  0  0  0  0  0
    4.7261   -3.2069   -0.2877 H   0  0  0  0  0  0  0  0  0  0  0  0
    5.5672   -3.6021    1.2711 H   0  0  0  0  0  0  0  0  0  0  0  0
    3.8459   -2.2762    2.2704 H   0  0  0  0  0  0  0  0  0  0  0  0
  1  2  1  0
  2  3  1  0
  3  4  1  0
  4  5  1  0
  5  6  1  0
  6  7  2  0
  7  8  1  0
  8  9  2  0
  9 10  1  0
 10 11  1  0
 11 12  1  0
 12 13  1  0
 13 14  1  0
 14 15  1  0
 15 16  1  0
 15 17  1  0
 17 18  1  0
 10 19  2  0
  9 20  1  0
 20 21  2  0
 21 22  1  0
 22 23  2  0
 23 24  1  0
 24 25  1  0
 25 26  1  0
 25 27  1  0
 23 28  1  0
 28 29  2  0
 19  6  1  0
 29 20  1  0
 18 12  1  0
  1 30  1  0
  1 31  1  0
  1 32  1  0
  2 33  1  0
  2 34  1  0
  3 35  1  0
  3 36  1  0
  4 37  1  0
  4 38  1  0
  5 39  1  0
  8 40  1  0
 11 41  1  0
 12 42  1  6
 13 43  1  0
 13 44  1  0
 14 45  1  0
 14 46  1  0
 15 47  1  1
 16 48  1  0
 17 49  1  0
 17 50  1  0
 18 51  1  0
 18 52  1  0
 21 53  1  0
 22 54  1  0
 24 55  1  0
 24 56  1  0
 26 57  1  0
 26 58  1  0
 26 59  1  0
 27 60  1  0
 27 61  1  0
 27 62  1  0
 28 63  1  0
M  END
$$$$
[H]O[C@]1([H])C([H])([H])C([H])([H])[C@@]([H])(N([H])c2nc(N([H])C([H])([H])C([H])([H])C([H])([H])C([H])([H])[H])nc([H])c2-c2nnc(OC([H])([H])[H])c([H])c2[H])C([H])([H])C1([H])[H]
     RDKit          3D

 55 57  0  0  0  0  0  0  0  0999 V2000
    6.5870   -0.3728   -1.1511 C   0  0  0  0  0  0  0  0  0  0  0  0
    6.1992   -1.5077   -0.2446 C   0  0  0  0  0  0  0  0  0  0  0  0
    4.6879   -1.5936   -0.0891 C   0  0  0  0  0  0  0  0  0  0  0  0
    3.9998   -1.8151   -1.3911 C   0  0  0  0  0  0  0  0  0  0  0  0
    2.5821   -1.8943   -1.2179 N   0  0  0  0  0  0  0  0  0  0  0  0
    1.8422   -0.7509   -0.8044 C   0  0  0  0  0  0  0  0  0  0  0  0
    2.4152    0.4318   -0.5704 N   0  0  0  0  0  0  0  0  0  0  0  0
    1.7064    1.5029   -0.1799 C   0  0  0  0  0  0  0  0  0  0  0  0
    0.3274    1.4528    0.0063 C   0  0  0  0  0  0  0  0  0  0  0  0
   -0.2519    0.2326   -0.2380 C   0  0  0  0  0  0  0  0  0  0  0  0
   -1.6283    0.0122   -0.1590 N   0  0  0  0  0  0  0  0  0  0  0  0
   -2.1838   -1.3087   -0.3864 C   0  0  1  0  0  0  0  0  0  0  0  0
   -1.8251   -2.2919    0.6712 C   0  0  0  0  0  0  0  0  0  0  0  0
   -2.4457   -3.6302    0.3297 C   0  0  0  0  0  0  0  0  0  0  0  0
   -3.9349   -3.4990    0.2683 C   0  0  2  0  0  0  0  0  0  0  0  0
   -4.5479   -4.7098    0.0059 O   0  0  0  0  0  0  0  0  0  0  0  0
   -4.3047   -2.5058   -0.8410 C   0  0  0  0  0  0  0  0  0  0  0  0
   -3.6931   -1.1860   -0.4311 C   0  0  0  0  0  0  0  0  0  0  0  0
    0.5213   -0.8225   -0.6323 N   0  0  0  0  0  0  0  0  0  0  0  0
   -0.3803    2.6586    0.4050 C   0  0  0  0  0  0  0  0  0  0  0  0
    0.2106    3.9132    0.2169 C   0  0  0  0  0  0  0  0  0  0  0  0
   -0.4678    5.0728    0.5646 C   0  0  0  0  0  0  0  0  0  0  0  0
   -1.7271    5.0352    1.0983 C   0  0  0  0  0  0  0  0  0  0  0  0
   -2.3893    6.2051    1.4397 O   0  0  0  0  0  0  0  0  0  0  0  0
   -3.6909    6.2086    1.9935 C   0  0  0  0  0  0  0  0  0  0  0  0
   -2.2619    3.7985    1.2628 N   0  0  0  0  0  0  0  0  0  0  0  0
   -1.6016    2.7115    0.9268 N   0  0  0  0  0  0  0  0  0  0  0  0
    5.9194    0.4915   -1.0578 H   0  0  0  0  0  0  0  0  0  0  0  0
    6.5600   -0.7433   -2.2020 H   0  0  0  0  0  0  0  0  0  0  0  0
    7.6043   -0.0395   -0.8521 H   0  0  0  0  0  0  0  0  0  0  0  0
    6.5223   -2.4775   -0.6631 H   0  0  0  0  0  0  0  0  0  0  0  0
    6.6839   -1.3559    0.7316 H   0  0  0  0  0  0  0  0  0  0  0  0
    4.4379   -2.4900    0.5531 H   0  0  0  0  0  0  0  0  0  0  0  0
    4.3837   -0.7289    0.4976 H   0  0  0  0  0  0  0  0  0  0  0  0
    4.1934   -1.0143   -2.1362 H   0  0  0  0  0  0  0  0  0  0  0  0
    4.3825   -2.8049   -1.7810 H   0  0  0  0  0  0  0  0  0  0  0  0
    2.0423   -2.7771   -1.3845 H   0  0  0  0  0  0  0  0  0  0  0  0
    2.2138    2.4500    0.0181 H   0  0  0  0  0  0  0  0  0  0  0  0
   -2.3000    0.7559    0.0456 H   0  0  0  0  0  0  0  0  0  0  0  0
   -1.7989   -1.7114   -1.3572 H   0  0  0  0  0  0  0  0  0  0  0  0
   -0.7552   -2.4603    0.7870 H   0  0  0  0  0  0  0  0  0  0  0  0
   -2.2742   -1.9748    1.6370 H   0  0  0  0  0  0  0  0  0  0  0  0
   -2.0011   -4.0634   -0.5761 H   0  0  0  0  0  0  0  0  0  0  0  0
   -2.2120   -4.3407    1.1639 H   0  0  0  0  0  0  0  0  0  0  0  0
   -4.2842   -3.0763    1.2325 H   0  0  0  0  0  0  0  0  0  0  0  0
   -4.9613   -5.0613    0.8280 H   0  0  0  0  0  0  0  0  0  0  0  0
   -5.4067   -2.3921   -0.8422 H   0  0  0  0  0  0  0  0  0  0  0  0
   -3.8867   -2.8655   -1.7868 H   0  0  0  0  0  0  0  0  0  0  0  0
   -3.9693   -0.3554   -1.1247 H   0  0  0  0  0  0  0  0  0  0  0  0
   -4.0225   -0.9606    0.6201 H   0  0  0  0  0  0  0  0  0  0  0  0
    1.1924    3.9735   -0.2134 H   0  0  0  0  0  0  0  0  0  0  0  0
    0.0550    6.0217    0.3906 H   0  0  0  0  0  0  0  0  0  0  0  0
   -3.5634    6.3830    3.0952 H   0  0  0  0  0  0  0  0  0  0  0  0
   -4.1915    5.2253    1.8961 H   0  0  0  0  0  0  0  0  0  0  0  0
   -4.3090    7.0446    1.6277 H   0  0  0  0  0  0  0  0  0  0  0  0
  1  2  1  0
  2  3  1  0
  3  4  1  0
  4  5  1  0
  5  6  1  0
  6  7  2  0
  7  8  1  0
  8  9  2  0
  9 10  1  0
 10 11  1  0
 11 12  1  0
 12 13  1  0
 13 14  1  0
 14 15  1  0
 15 16  1  0
 15 17  1  0
 17 18  1  0
 10 19  2  0
  9 20  1  0
 20 21  2  0
 21 22  1  0
 22 23  2  0
 23 24  1  0
 24 25  1  0
 23 26  1  0
 26 27  2  0
 19  6  1  0
 27 20  1  0
 18 12  1  0
  1 28  1  0
  1 29  1  0
  1 30  1  0
  2 31  1  0
  2 32  1  0
  3 33  1  0
  3 34  1  0
  4 35  1  0
  4 36  1  0
  5 37  1  0
  8 38  1  0
 11 39  1  0
 12 40  1  6
 13 41  1  0
 13 42  1  0
 14 43  1  0
 14 44  1  0
 15 45  1  1
 16 46  1  0
 17 47  1  0
 17 48  1  0
 18 49  1  0
 18 50  1  0
 21 51  1  0
 22 52  1  0
 25 53  1  0
 25 54  1  0
 25 55  1  0
M  END
$$$$
[H]OC1([H])C([H])([H])C([H])([H])C([H])(C([H])([H])n2nc(-c3c([H])c([H])c(F)c([H])c3[H])c3c([H])nc(N([H])C([H])([H])C([H])([H])C([H])([H])C([H])([H])[H])nc32)C([H])([H])C1([H])[H]
     RDKit          3D

 57 60  0  0  0  0  0  0  0  0999 V2000
    6.1890   -2.0692    2.0188 C   0  0  0  0  0  0  0  0  0  0  0  0
    5.5747   -2.9982    1.0286 C   0  0  0  0  0  0  0  0  0  0  0  0
    5.4218   -2.4114   -0.3521 C   0  0  0  0  0  0  0  0  0  0  0  0
    4.5640   -1.1924   -0.3841 C   0  0  0  0  0  0  0  0  0  0  0  0
    3.2189   -1.4332    0.0835 N   0  0  0  0  0  0  0  0  0  0  0  0
    2.2632   -0.3564    0.1168 C   0  0  0  0  0  0  0  0  0  0  0  0
    2.6340    0.8660   -0.2890 N   0  0  0  0  0  0  0  0  0  0  0  0
    1.7597    1.8785   -0.2649 C   0  0  0  0  0  0  0  0  0  0  0  0
    0.4707    1.6753    0.1769 C   0  0  0  0  0  0  0  0  0  0  0  0
   -0.6386    2.4793    0.3216 C   0  0  0  0  0  0  0  0  0  0  0  0
   -1.6128    1.6924    0.8063 N   0  0  0  0  0  0  0  0  0  0  0  0
   -1.2243    0.4533    0.9850 N   0  0  0  0  0  0  0  0  0  0  0  0
   -1.9715   -0.6895    1.4859 C   0  0  0  0  0  0  0  0  0  0  0  0
   -2.6589   -1.4453    0.3775 C   0  0  0  0  0  0  0  0  0  0  0  0
   -3.4074   -2.6101    0.9874 C   0  0  0  0  0  0  0  0  0  0  0  0
   -4.8379   -2.6908    0.4943 C   0  0  0  0  0  0  0  0  0  0  0  0
   -4.8165   -2.7200   -1.0002 C   0  0  0  0  0  0  0  0  0  0  0  0
   -4.1224   -3.8609   -1.3967 O   0  0  0  0  0  0  0  0  0  0  0  0
   -4.2101   -1.4484   -1.5037 C   0  0  0  0  0  0  0  0  0  0  0  0
   -3.6434   -0.5927   -0.3824 C   0  0  0  0  0  0  0  0  0  0  0  0
    0.0689    0.4034    0.6039 C   0  0  0  0  0  0  0  0  0  0  0  0
    1.0100   -0.5480    0.5447 N   0  0  0  0  0  0  0  0  0  0  0  0
   -0.6982    3.9062   -0.0055 C   0  0  0  0  0  0  0  0  0  0  0  0
    0.2961    4.7751    0.3901 C   0  0  0  0  0  0  0  0  0  0  0  0
    0.2910    6.1223    0.1065 C   0  0  0  0  0  0  0  0  0  0  0  0
   -0.7573    6.6522   -0.6118 C   0  0  0  0  0  0  0  0  0  0  0  0
   -0.7690    7.9729   -0.8939 F   0  0  0  0  0  0  0  0  0  0  0  0
   -1.7672    5.7901   -1.0177 C   0  0  0  0  0  0  0  0  0  0  0  0
   -1.7489    4.4424   -0.7264 C   0  0  0  0  0  0  0  0  0  0  0  0
    6.7252   -2.7059    2.7828 H   0  0  0  0  0  0  0  0  0  0  0  0
    6.9500   -1.3932    1.6095 H   0  0  0  0  0  0  0  0  0  0  0  0
    5.4004   -1.5310    2.5939 H   0  0  0  0  0  0  0  0  0  0  0  0
    6.2708   -3.8798    0.9127 H   0  0  0  0  0  0  0  0  0  0  0  0
    4.6186   -3.3743    1.4357 H   0  0  0  0  0  0  0  0  0  0  0  0
    6.4002   -2.1801   -0.8092 H   0  0  0  0  0  0  0  0  0  0  0  0
    4.9362   -3.1862   -0.9808 H   0  0  0  0  0  0  0  0  0  0  0  0
    4.4693   -0.8879   -1.4580 H   0  0  0  0  0  0  0  0  0  0  0  0
    5.0147   -0.3182    0.1276 H   0  0  0  0  0  0  0  0  0  0  0  0
    2.9061   -2.3662    0.4021 H   0  0  0  0  0  0  0  0  0  0  0  0
    2.0932    2.8477   -0.6009 H   0  0  0  0  0  0  0  0  0  0  0  0
   -1.2913   -1.4149    1.9888 H   0  0  0  0  0  0  0  0  0  0  0  0
   -2.7107   -0.3874    2.2560 H   0  0  0  0  0  0  0  0  0  0  0  0
   -1.9160   -1.8133   -0.3599 H   0  0  0  0  0  0  0  0  0  0  0  0
   -3.4602   -2.4863    2.0831 H   0  0  0  0  0  0  0  0  0  0  0  0
   -2.8446   -3.5353    0.7577 H   0  0  0  0  0  0  0  0  0  0  0  0
   -5.4173   -1.8572    0.9271 H   0  0  0  0  0  0  0  0  0  0  0  0
   -5.2667   -3.6234    0.9135 H   0  0  0  0  0  0  0  0  0  0  0  0
   -5.8524   -2.8288   -1.3908 H   0  0  0  0  0  0  0  0  0  0  0  0
   -3.1719   -3.6686   -1.3285 H   0  0  0  0  0  0  0  0  0  0  0  0
   -4.9637   -0.8732   -2.1065 H   0  0  0  0  0  0  0  0  0  0  0  0
   -3.3636   -1.7384   -2.1818 H   0  0  0  0  0  0  0  0  0  0  0  0
   -3.0478    0.2117   -0.8986 H   0  0  0  0  0  0  0  0  0  0  0  0
   -4.4576   -0.1986    0.2251 H   0  0  0  0  0  0  0  0  0  0  0  0
    1.1207    4.3701    0.9561 H   0  0  0  0  0  0  0  0  0  0  0  0
    1.1157    6.7178    0.4605 H   0  0  0  0  0  0  0  0  0  0  0  0
   -2.5767    6.2590   -1.5848 H   0  0  0  0  0  0  0  0  0  0  0  0
   -2.5582    3.7987   -1.0616 H   0  0  0  0  0  0  0  0  0  0  0  0
  1  2  1  0
  2  3  1  0
  3  4  1  0
  4  5  1  0
  5  6  1  0
  6  7  2  0
  7  8  1  0
  8  9  2  0
  9 10  1  0
 10 11  2  0
 11 12  1  0
 12 13  1  0
 13 14  1  0
 14 15  1  0
 15 16  1  0
 16 17  1  0
 17 18  1  0
 17 19  1  0
 19 20  1  0
 12 21  1  0
 21 22  2  0
 10 23  1  0
 23 24  2  0
 24 25  1  0
 25 26  2  0
 26 27  1  0
 26 28  1  0
 28 29  2  0
 22  6  1  0
 29 23  1  0
 21  9  1  0
 20 14  1  0
  1 30  1  0
  1 31  1  0
  1 32  1  0
  2 33  1  0
  2 34  1  0
  3 35  1  0
  3 36  1  0
  4 37  1  0
  4 38  1  0
  5 39  1  0
  8 40  1  0
 13 41  1  0
 13 42  1  0
 14 43  1  0
 15 44  1  0
 15 45  1  0
 16 46  1  0
 16 47  1  0
 17 48  1  0
 18 49  1  0
 19 50  1  0
 19 51  1  0
 20 52  1  0
 20 53  1  0
 24 54  1  0
 25 55  1  0
 28 56  1  0
 29 57  1  0
M  END
$$$$
[H]O[C@]1([H])C([H])([H])C([H])([H])[C@@]([H])(N([H])c2nc(N([H])C([H])([H])C([H])([H])C([H])([H])C([H])([H])[H])nc([H])c2-c2nc([H])nc(N([H])c3c([H])c([H])c([H])c(C([H])(C([H])([H])[H])C([H])([H])[H])c3[H])c2[H])C([H])([H])C1([H])[H]
     RDKit          3D

 72 75  0  0  0  0  0  0  0  0999 V2000
   -6.6105    4.2799    0.0835 C   0  0  0  0  0  0  0  0  0  0  0  0
   -5.5035    3.5000   -0.5762 C   0  0  0  0  0  0  0  0  0  0  0  0
   -5.6844    2.0132   -0.2909 C   0  0  0  0  0  0  0  0  0  0  0  0
   -5.6524    1.7311    1.1774 C   0  0  0  0  0  0  0  0  0  0  0  0
   -4.4176    2.1298    1.7908 N   0  0  0  0  0  0  0  0  0  0  0  0
   -3.1970    1.4756    1.4690 C   0  0  0  0  0  0  0  0  0  0  0  0
   -2.0323    1.8582    2.0420 N   0  0  0  0  0  0  0  0  0  0  0  0
   -0.8828    1.2446    1.7579 C   0  0  0  0  0  0  0  0  0  0  0  0
   -0.7969    0.1724    0.8562 C   0  0  0  0  0  0  0  0  0  0  0  0
   -1.9801   -0.2129    0.2747 C   0  0  0  0  0  0  0  0  0  0  0  0
   -2.0668   -1.2329   -0.7083 N   0  0  0  0  0  0  0  0  0  0  0  0
   -3.4181   -1.5585   -1.1987 C   0  0  1  0  0  0  0  0  0  0  0  0
   -3.3036   -2.5484   -2.3475 C   0  0  0  0  0  0  0  0  0  0  0  0
   -4.6057   -3.2922   -2.5278 C   0  0  0  0  0  0  0  0  0  0  0  0
   -4.6942   -4.2887   -1.3887 C   0  0  2  0  0  0  0  0  0  0  0  0
   -6.0056   -4.6086   -1.1213 O   0  0  0  0  0  0  0  0  0  0  0  0
   -3.9654   -3.7507   -0.1940 C   0  0  0  0  0  0  0  0  0  0  0  0
   -4.1568   -2.2340   -0.0637 C   0  0  0  0  0  0  0  0  0  0  0  0
   -3.1175    0.4632    0.6165 N   0  0  0  0  0  0  0  0  0  0  0  0
    0.4987   -0.4271    0.5868 C   0  0  0  0  0  0  0  0  0  0  0  0
    1.6422    0.3051    0.8878 C   0  0  0  0  0  0  0  0  0  0  0  0
    2.9090   -0.2203    0.6207 C   0  0  0  0  0  0  0  0  0  0  0  0
    4.0780    0.5060    0.8836 N   0  0  0  0  0  0  0  0  0  0  0  0
    5.3831    0.0024    0.6902 C   0  0  0  0  0  0  0  0  0  0  0  0
    5.7525   -1.3052    0.7642 C   0  0  0  0  0  0  0  0  0  0  0  0
    7.0530   -1.7419    0.5314 C   0  0  0  0  0  0  0  0  0  0  0  0
    8.0166   -0.8304    0.2138 C   0  0  0  0  0  0  0  0  0  0  0  0
    7.6996    0.5179    0.1249 C   0  0  0  0  0  0  0  0  0  0  0  0
    6.4141    0.9081    0.3593 C   0  0  0  0  0  0  0  0  0  0  0  0
    8.7847    1.4780   -0.2244 C   0  0  0  0  0  0  0  0  0  0  0  0
    9.0398    2.4218    0.9559 C   0  0  0  0  0  0  0  0  0  0  0  0
    8.4904    2.2449   -1.4833 C   0  0  0  0  0  0  0  0  0  0  0  0
    2.9206   -1.4414    0.0712 N   0  0  0  0  0  0  0  0  0  0  0  0
    1.8343   -2.1459   -0.2193 C   0  0  0  0  0  0  0  0  0  0  0  0
    0.6193   -1.6380    0.0387 N   0  0  0  0  0  0  0  0  0  0  0  0
   -6.2949    4.6828    1.0901 H   0  0  0  0  0  0  0  0  0  0  0  0
   -7.5121    3.6736    0.2704 H   0  0  0  0  0  0  0  0  0  0  0  0
   -6.9293    5.1667   -0.5028 H   0  0  0  0  0  0  0  0  0  0  0  0
   -5.6084    3.6330   -1.6649 H   0  0  0  0  0  0  0  0  0  0  0  0
   -4.5328    3.8808   -0.2574 H   0  0  0  0  0  0  0  0  0  0  0  0
   -4.9230    1.4476   -0.8467 H   0  0  0  0  0  0  0  0  0  0  0  0
   -6.6785    1.7509   -0.7264 H   0  0  0  0  0  0  0  0  0  0  0  0
   -6.5433    2.1285    1.7106 H   0  0  0  0  0  0  0  0  0  0  0  0
   -5.7645    0.6097    1.2768 H   0  0  0  0  0  0  0  0  0  0  0  0
   -4.3948    2.9110    2.4859 H   0  0  0  0  0  0  0  0  0  0  0  0
    0.0270    1.5710    2.2472 H   0  0  0  0  0  0  0  0  0  0  0  0
   -1.2798   -1.7451   -1.1125 H   0  0  0  0  0  0  0  0  0  0  0  0
   -3.9052   -0.6294   -1.5065 H   0  0  0  0  0  0  0  0  0  0  0  0
   -2.5159   -3.2796   -2.1137 H   0  0  0  0  0  0  0  0  0  0  0  0
   -3.0625   -2.0109   -3.2945 H   0  0  0  0  0  0  0  0  0  0  0  0
   -5.4821   -2.6041   -2.5187 H   0  0  0  0  0  0  0  0  0  0  0  0
   -4.5697   -3.8371   -3.4878 H   0  0  0  0  0  0  0  0  0  0  0  0
   -4.1939   -5.2293   -1.7565 H   0  0  0  0  0  0  0  0  0  0  0  0
   -6.0913   -5.5216   -0.7490 H   0  0  0  0  0  0  0  0  0  0  0  0
   -2.8940   -3.9534   -0.2343 H   0  0  0  0  0  0  0  0  0  0  0  0
   -4.3560   -4.2205    0.7435 H   0  0  0  0  0  0  0  0  0  0  0  0
   -3.7616   -1.9801    0.9199 H   0  0  0  0  0  0  0  0  0  0  0  0
   -5.2555   -1.9914   -0.0780 H   0  0  0  0  0  0  0  0  0  0  0  0
    1.6343    1.2762    1.3123 H   0  0  0  0  0  0  0  0  0  0  0  0
    3.9313    1.4934    1.2497 H   0  0  0  0  0  0  0  0  0  0  0  0
    5.0105   -2.0673    1.0421 H   0  0  0  0  0  0  0  0  0  0  0  0
    7.2909   -2.7810    0.6013 H   0  0  0  0  0  0  0  0  0  0  0  0
    9.0622   -1.1216    0.0196 H   0  0  0  0  0  0  0  0  0  0  0  0
    6.1424    1.9588    0.2952 H   0  0  0  0  0  0  0  0  0  0  0  0
    9.7349    0.9301   -0.3700 H   0  0  0  0  0  0  0  0  0  0  0  0
    9.5384    1.8289    1.7480 H   0  0  0  0  0  0  0  0  0  0  0  0
    8.0999    2.8269    1.3619 H   0  0  0  0  0  0  0  0  0  0  0  0
    9.7533    3.1963    0.6322 H   0  0  0  0  0  0  0  0  0  0  0  0
    9.3717    2.2184   -2.1895 H   0  0  0  0  0  0  0  0  0  0  0  0
    8.3211    3.3348   -1.2772 H   0  0  0  0  0  0  0  0  0  0  0  0
    7.6452    1.8058   -2.0500 H   0  0  0  0  0  0  0  0  0  0  0  0
    1.9416   -3.1276   -0.6637 H   0  0  0  0  0  0  0  0  0  0  0  0
  1  2  1  0
  2  3  1  0
  3  4  1  0
  4  5  1  0
  5  6  1  0
  6  7  2  0
  7  8  1  0
  8  9  2  0
  9 10  1  0
 10 11  1  0
 11 12  1  0
 12 13  1  0
 13 14  1  0
 14 15  1  0
 15 16  1  0
 15 17  1  0
 17 18  1  0
 10 19  2  0
  9 20  1  0
 20 21  2  0
 21 22  1  0
 22 23  1  0
 23 24  1  0
 24 25  2  0
 25 26  1  0
 26 27  2  0
 27 28  1  0
 28 29  2  0
 28 30  1  0
 30 31  1  0
 30 32  1  0
 22 33  2  0
 33 34  1  0
 34 35  2  0
 19  6  1  0
 35 20  1  0
 18 12  1  0
 29 24  1  0
  1 36  1  0
  1 37  1  0
  1 38  1  0
  2 39  1  0
  2 40  1  0
  3 41  1  0
  3 42  1  0
  4 43  1  0
  4 44  1  0
  5 45  1  0
  8 46  1  0
 11 47  1  0
 12 48  1  6
 13 49  1  0
 13 50  1  0
 14 51  1  0
 14 52  1  0
 15 53  1  6
 16 54  1  0
 17 55  1  0
 17 56  1  0
 18 57  1  0
 18 58  1  0
 21 59  1  0
 23 60  1  0
 25 61  1  0
 26 62  1  0
 27 63  1  0
 29 64  1  0
 30 65  1  0
 31 66  1  0
 31 67  1  0
 31 68  1  0
 32 69  1  0
 32 70  1  0
 32 71  1  0
 34 72  1  0
M  END
$$$$
[H]c1nc(N([H])[H])c(C(=O)N([H])[C@@]2([H])C([H])([H])C([H])([H])C([H])([H])[C@]2([H])OC([H])([H])c2c([H])c([H])c(C([H])([H])[H])c(C([H])([H])[H])c2[H])c([H])c1-c1c([H])c([H])c(C([H])([H])N2C([H])([H])C([H])([H])OC([H])([H])C2([H])[H])c([H])c1[H]
     RDKit          3D

 76 80  0  0  0  0  0  0  0  0999 V2000
   10.6955   -0.5573   -0.1972 C   0  0  0  0  0  0  0  0  0  0  0  0
    9.2506   -0.2110   -0.1341 C   0  0  0  0  0  0  0  0  0  0  0  0
    8.6483    0.1782    1.0590 C   0  0  0  0  0  0  0  0  0  0  0  0
    7.2944    0.4948    1.0804 C   0  0  0  0  0  0  0  0  0  0  0  0
    6.5112    0.4349   -0.0658 C   0  0  0  0  0  0  0  0  0  0  0  0
    5.0618    0.7735   -0.0403 C   0  0  0  0  0  0  0  0  0  0  0  0
    4.3512   -0.3378    0.2293 O   0  0  0  0  0  0  0  0  0  0  0  0
    3.0068   -0.2692    0.3033 C   0  0  1  0  0  0  0  0  0  0  0  0
    2.3962   -1.1676   -0.7513 C   0  0  0  0  0  0  0  0  0  0  0  0
    1.8110   -2.3558   -0.0368 C   0  0  0  0  0  0  0  0  0  0  0  0
    2.1619   -2.2035    1.4305 C   0  0  0  0  0  0  0  0  0  0  0  0
    2.3608   -0.7313    1.5620 C   0  0  2  0  0  0  0  0  0  0  0  0
    1.0110   -0.1358    1.5690 N   0  0  0  0  0  0  0  0  0  0  0  0
    0.5579    0.6884    2.6018 C   0  0  0  0  0  0  0  0  0  0  0  0
    1.2971    0.9479    3.5633 O   0  0  0  0  0  0  0  0  0  0  0  0
   -0.7812    1.2427    2.5500 C   0  0  0  0  0  0  0  0  0  0  0  0
   -1.6804    1.0225    1.5408 C   0  0  0  0  0  0  0  0  0  0  0  0
   -2.9587    1.5723    1.5242 C   0  0  0  0  0  0  0  0  0  0  0  0
   -3.3226    2.3754    2.5824 C   0  0  0  0  0  0  0  0  0  0  0  0
   -2.4474    2.6035    3.5873 N   0  0  0  0  0  0  0  0  0  0  0  0
   -1.2139    2.0608    3.5832 C   0  0  0  0  0  0  0  0  0  0  0  0
   -0.3131    2.3178    4.6553 N   0  0  0  0  0  0  0  0  0  0  0  0
   -3.9087    1.3340    0.4536 C   0  0  0  0  0  0  0  0  0  0  0  0
   -4.8474    2.2667    0.0763 C   0  0  0  0  0  0  0  0  0  0  0  0
   -5.7459    2.0339   -0.9373 C   0  0  0  0  0  0  0  0  0  0  0  0
   -5.7135    0.8363   -1.5995 C   0  0  0  0  0  0  0  0  0  0  0  0
   -6.6653    0.5213   -2.7141 C   0  0  0  0  0  0  0  0  0  0  0  0
   -7.7997   -0.2444   -2.3075 N   0  0  0  0  0  0  0  0  0  0  0  0
   -8.6527    0.3006   -1.3403 C   0  0  0  0  0  0  0  0  0  0  0  0
   -8.9872   -0.5775   -0.1757 C   0  0  0  0  0  0  0  0  0  0  0  0
   -9.0901   -1.9209   -0.5136 O   0  0  0  0  0  0  0  0  0  0  0  0
   -7.8527   -2.3219   -0.9989 C   0  0  0  0  0  0  0  0  0  0  0  0
   -7.6565   -1.6560   -2.3365 C   0  0  0  0  0  0  0  0  0  0  0  0
   -4.7884   -0.1147   -1.2460 C   0  0  0  0  0  0  0  0  0  0  0  0
   -3.8983    0.1390   -0.2289 C   0  0  0  0  0  0  0  0  0  0  0  0
    7.1487    0.0437   -1.2304 C   0  0  0  0  0  0  0  0  0  0  0  0
    8.4929   -0.2735   -1.2652 C   0  0  0  0  0  0  0  0  0  0  0  0
    9.1440   -0.6900   -2.5362 C   0  0  0  0  0  0  0  0  0  0  0  0
   11.0817   -0.6721    0.8327 H   0  0  0  0  0  0  0  0  0  0  0  0
   11.2209    0.2507   -0.7585 H   0  0  0  0  0  0  0  0  0  0  0  0
   10.7993   -1.5006   -0.7798 H   0  0  0  0  0  0  0  0  0  0  0  0
    9.2495    0.2302    1.9680 H   0  0  0  0  0  0  0  0  0  0  0  0
    6.8319    0.8000    2.0283 H   0  0  0  0  0  0  0  0  0  0  0  0
    4.8057    1.1577   -1.0585 H   0  0  0  0  0  0  0  0  0  0  0  0
    4.9493    1.6180    0.6554 H   0  0  0  0  0  0  0  0  0  0  0  0
    2.6762    0.7738    0.1135 H   0  0  0  0  0  0  0  0  0  0  0  0
    3.1989   -1.5702   -1.4344 H   0  0  0  0  0  0  0  0  0  0  0  0
    1.6085   -0.6577   -1.3310 H   0  0  0  0  0  0  0  0  0  0  0  0
    2.2039   -3.3216   -0.3756 H   0  0  0  0  0  0  0  0  0  0  0  0
    0.6982   -2.3540   -0.0869 H   0  0  0  0  0  0  0  0  0  0  0  0
    3.0222   -2.8163    1.7235 H   0  0  0  0  0  0  0  0  0  0  0  0
    1.3118   -2.4967    2.0854 H   0  0  0  0  0  0  0  0  0  0  0  0
    2.8409   -0.3962    2.4820 H   0  0  0  0  0  0  0  0  0  0  0  0
    0.4413   -0.3915    0.7349 H   0  0  0  0  0  0  0  0  0  0  0  0
   -1.4162    0.4062    0.7182 H   0  0  0  0  0  0  0  0  0  0  0  0
   -4.2889    2.8529    2.6711 H   0  0  0  0  0  0  0  0  0  0  0  0
   -0.2230    1.6208    5.4281 H   0  0  0  0  0  0  0  0  0  0  0  0
    0.2609    3.1707    4.7040 H   0  0  0  0  0  0  0  0  0  0  0  0
   -4.9059    3.2274    0.5761 H   0  0  0  0  0  0  0  0  0  0  0  0
   -6.4698    2.7948   -1.2072 H   0  0  0  0  0  0  0  0  0  0  0  0
   -6.9688    1.4929   -3.1862 H   0  0  0  0  0  0  0  0  0  0  0  0
   -6.1453   -0.0539   -3.5182 H   0  0  0  0  0  0  0  0  0  0  0  0
   -8.2936    1.2724   -0.9618 H   0  0  0  0  0  0  0  0  0  0  0  0
   -9.6377    0.5445   -1.8405 H   0  0  0  0  0  0  0  0  0  0  0  0
   -8.2199   -0.5075    0.6216 H   0  0  0  0  0  0  0  0  0  0  0  0
   -9.9498   -0.2826    0.2913 H   0  0  0  0  0  0  0  0  0  0  0  0
   -7.0342   -2.1616   -0.2923 H   0  0  0  0  0  0  0  0  0  0  0  0
   -7.9246   -3.4199   -1.1944 H   0  0  0  0  0  0  0  0  0  0  0  0
   -8.4655   -2.0667   -3.0102 H   0  0  0  0  0  0  0  0  0  0  0  0
   -6.7104   -2.0267   -2.7762 H   0  0  0  0  0  0  0  0  0  0  0  0
   -4.7497   -1.0900   -1.7744 H   0  0  0  0  0  0  0  0  0  0  0  0
   -3.1899   -0.6450    0.0094 H   0  0  0  0  0  0  0  0  0  0  0  0
    6.5865   -0.0161   -2.1350 H   0  0  0  0  0  0  0  0  0  0  0  0
    9.6542   -1.6498   -2.4680 H   0  0  0  0  0  0  0  0  0  0  0  0
    9.8880    0.1125   -2.8043 H   0  0  0  0  0  0  0  0  0  0  0  0
    8.3865   -0.6488   -3.3541 H   0  0  0  0  0  0  0  0  0  0  0  0
  1  2  1  0
  2  3  2  0
  3  4  1  0
  4  5  2  0
  5  6  1  0
  6  7  1  0
  7  8  1  0
  8  9  1  0
  9 10  1  0
 10 11  1  0
 11 12  1  0
 12 13  1  0
 13 14  1  0
 14 15  2  0
 14 16  1  0
 16 17  2  0
 17 18  1  0
 18 19  2  0
 19 20  1  0
 20 21  2  0
 21 22  1  0
 18 23  1  0
 23 24  2  0
 24 25  1  0
 25 26  2  0
 26 27  1  0
 27 28  1  0
 28 29  1  0
 29 30  1  0
 30 31  1  0
 31 32  1  0
 32 33  1  0
 26 34  1  0
 34 35  2  0
  5 36  1  0
 36 37  2  0
 37 38  1  0
 37  2  1  0
 12  8  1  0
 21 16  1  0
 35 23  1  0
 33 28  1  0
  1 39  1  0
  1 40  1  0
  1 41  1  0
  3 42  1  0
  4 43  1  0
  6 44  1  0
  6 45  1  0
  8 46  1  6
  9 47  1  0
  9 48  1  0
 10 49  1  0
 10 50  1  0
 11 51  1  0
 11 52  1  0
 12 53  1  1
 13 54  1  0
 17 55  1  0
 19 56  1  0
 22 57  1  0
 22 58  1  0
 24 59  1  0
 25 60  1  0
 27 61  1  0
 27 62  1  0
 29 63  1  0
 29 64  1  0
 30 65  1  0
 30 66  1  0
 32 67  1  0
 32 68  1  0
 33 69  1  0
 33 70  1  0
 34 71  1  0
 35 72  1  0
 36 73  1  0
 38 74  1  0
 38 75  1  0
 38 76  1  0
M  END
$$$$
[H]c1c([H])c(-c2nn(C([H])([H])C3([H])C([H])([H])C([H])([H])C([H])(N([H])[H])C([H])([H])C3([H])[H])c3nc(N([H])C([H])([H])[H])nc([H])c23)c([H])c([H])c1Cl
     RDKit          3D

 49 52  0  0  0  0  0  0  0  0999 V2000
   -1.9752    5.0908   -0.4023 C   0  0  0  0  0  0  0  0  0  0  0  0
   -1.0048    4.0630   -0.6100 N   0  0  0  0  0  0  0  0  0  0  0  0
   -1.3308    2.6986   -0.4434 C   0  0  0  0  0  0  0  0  0  0  0  0
   -2.5866    2.3806   -0.0814 N   0  0  0  0  0  0  0  0  0  0  0  0
   -2.9520    1.1218    0.0898 C   0  0  0  0  0  0  0  0  0  0  0  0
   -2.0028    0.1213   -0.1137 C   0  0  0  0  0  0  0  0  0  0  0  0
   -2.0466   -1.2411   -0.0352 C   0  0  0  0  0  0  0  0  0  0  0  0
   -0.8214   -1.6819   -0.3521 N   0  0  0  0  0  0  0  0  0  0  0  0
    0.0016   -0.6627   -0.6283 N   0  0  0  0  0  0  0  0  0  0  0  0
    1.3884   -0.8689   -0.9823 C   0  0  0  0  0  0  0  0  0  0  0  0
    2.3041   -0.9933    0.1816 C   0  0  0  0  0  0  0  0  0  0  0  0
    2.3830    0.1578    1.1132 C   0  0  0  0  0  0  0  0  0  0  0  0
    3.1559    1.3327    0.5524 C   0  0  0  0  0  0  0  0  0  0  0  0
    4.5210    0.9146    0.0537 C   0  0  0  0  0  0  0  0  0  0  0  0
    5.4479    0.7305    1.1805 N   0  0  0  0  0  0  0  0  0  0  0  0
    4.4874   -0.2875   -0.8308 C   0  0  0  0  0  0  0  0  0  0  0  0
    3.6748   -1.4277   -0.3068 C   0  0  0  0  0  0  0  0  0  0  0  0
   -0.7123    0.4550   -0.4858 C   0  0  0  0  0  0  0  0  0  0  0  0
   -0.4008    1.7385   -0.6439 N   0  0  0  0  0  0  0  0  0  0  0  0
   -3.2190   -2.0228    0.3223 C   0  0  0  0  0  0  0  0  0  0  0  0
   -4.0427   -1.7436    1.3853 C   0  0  0  0  0  0  0  0  0  0  0  0
   -5.1389   -2.5436    1.6435 C   0  0  0  0  0  0  0  0  0  0  0  0
   -5.4075   -3.6203    0.8375 C   0  0  0  0  0  0  0  0  0  0  0  0
   -6.8083   -4.6348    1.1750 Cl  0  0  0  0  0  0  0  0  0  0  0  0
   -4.5970   -3.9116   -0.2246 C   0  0  0  0  0  0  0  0  0  0  0  0
   -3.5023   -3.1167   -0.4865 C   0  0  0  0  0  0  0  0  0  0  0  0
   -2.6911    4.8679    0.4104 H   0  0  0  0  0  0  0  0  0  0  0  0
   -2.5913    5.2753   -1.3172 H   0  0  0  0  0  0  0  0  0  0  0  0
   -1.4667    6.0649   -0.1777 H   0  0  0  0  0  0  0  0  0  0  0  0
   -0.0393    4.3198   -0.8890 H   0  0  0  0  0  0  0  0  0  0  0  0
   -3.9684    0.8288    0.3821 H   0  0  0  0  0  0  0  0  0  0  0  0
    1.4290   -1.8126   -1.6044 H   0  0  0  0  0  0  0  0  0  0  0  0
    1.7057   -0.0728   -1.7005 H   0  0  0  0  0  0  0  0  0  0  0  0
    1.9475   -1.8734    0.8027 H   0  0  0  0  0  0  0  0  0  0  0  0
    1.3892    0.5088    1.4080 H   0  0  0  0  0  0  0  0  0  0  0  0
    2.8809   -0.2106    2.0453 H   0  0  0  0  0  0  0  0  0  0  0  0
    2.6159    1.8264   -0.2514 H   0  0  0  0  0  0  0  0  0  0  0  0
    3.3042    2.0566    1.3753 H   0  0  0  0  0  0  0  0  0  0  0  0
    4.9245    1.7683   -0.5309 H   0  0  0  0  0  0  0  0  0  0  0  0
    6.4208    0.6940    0.8021 H   0  0  0  0  0  0  0  0  0  0  0  0
    5.2815   -0.1784    1.6663 H   0  0  0  0  0  0  0  0  0  0  0  0
    4.1428    0.0121   -1.8362 H   0  0  0  0  0  0  0  0  0  0  0  0
    5.5354   -0.6497   -0.9437 H   0  0  0  0  0  0  0  0  0  0  0  0
    3.4820   -2.1222   -1.1686 H   0  0  0  0  0  0  0  0  0  0  0  0
    4.1725   -2.0202    0.4694 H   0  0  0  0  0  0  0  0  0  0  0  0
   -3.8200   -0.8928    2.0183 H   0  0  0  0  0  0  0  0  0  0  0  0
   -5.7911   -2.3275    2.4800 H   0  0  0  0  0  0  0  0  0  0  0  0
   -4.8116   -4.7635   -0.8602 H   0  0  0  0  0  0  0  0  0  0  0  0
   -2.8674   -3.3477   -1.3213 H   0  0  0  0  0  0  0  0  0  0  0  0
  1  2  1  0
  2  3  1  0
  3  4  2  0
  4  5  1  0
  5  6  2  0
  6  7  1  0
  7  8  2  0
  8  9  1  0
  9 10  1  0
 10 11  1  0
 11 12  1  0
 12 13  1  0
 13 14  1  0
 14 15  1  0
 14 16  1  0
 16 17  1  0
  9 18  1  0
 18 19  2  0
  7 20  1  0
 20 21  2  0
 21 22  1  0
 22 23  2  0
 23 24  1  0
 23 25  1  0
 25 26  2  0
 19  3  1  0
 26 20  1  0
 18  6  1  0
 17 11  1  0
  1 27  1  0
  1 28  1  0
  1 29  1  0
  2 30  1  0
  5 31  1  0
 10 32  1  0
 10 33  1  0
 11 34  1  0
 12 35  1  0
 12 36  1  0
 13 37  1  0
 13 38  1  0
 14 39  1  0
 15 40  1  0
 15 41  1  0
 16 42  1  0
 16 43  1  0
 17 44  1  0
 17 45  1  0
 21 46  1  0
 22 47  1  0
 25 48  1  0
 26 49  1  0
M  END
$$$$
[H]c1c([H])c([H])c(-c2nn(C([H])([H])C3([H])C([H])([H])C([H])([H])C([H])(N([H])[H])C([H])([H])C3([H])[H])c3nc(N([H])C([H])([H])c4c([H])c([H])c(OC([H])([H])[H])c([H])c4[H])nc([H])c23)c([H])c1[H]
     RDKit          3D

 63 67  0  0  0  0  0  0  0  0999 V2000
    8.8248    3.7266    1.1648 C   0  0  0  0  0  0  0  0  0  0  0  0
    7.8273    3.7373    0.1743 O   0  0  0  0  0  0  0  0  0  0  0  0
    6.8214    2.7892    0.1836 C   0  0  0  0  0  0  0  0  0  0  0  0
    5.8204    2.7531   -0.7613 C   0  0  0  0  0  0  0  0  0  0  0  0
    4.8358    1.7900   -0.7153 C   0  0  0  0  0  0  0  0  0  0  0  0
    4.8314    0.8444    0.2747 C   0  0  0  0  0  0  0  0  0  0  0  0
    3.7954   -0.1933    0.3569 C   0  0  0  0  0  0  0  0  0  0  0  0
    2.5328    0.1984   -0.1892 N   0  0  0  0  0  0  0  0  0  0  0  0
    1.4326   -0.6788   -0.2137 C   0  0  0  0  0  0  0  0  0  0  0  0
    1.5120   -1.9284    0.2743 N   0  0  0  0  0  0  0  0  0  0  0  0
    0.4697   -2.7697    0.2548 C   0  0  0  0  0  0  0  0  0  0  0  0
   -0.7172   -2.3316   -0.2845 C   0  0  0  0  0  0  0  0  0  0  0  0
   -1.9703   -2.8816   -0.4801 C   0  0  0  0  0  0  0  0  0  0  0  0
   -2.7459   -1.9546   -1.0705 N   0  0  0  0  0  0  0  0  0  0  0  0
   -2.0702   -0.8384   -1.2685 N   0  0  0  0  0  0  0  0  0  0  0  0
   -2.5861    0.3702   -1.8788 C   0  0  0  0  0  0  0  0  0  0  0  0
   -3.1894    1.2983   -0.8907 C   0  0  0  0  0  0  0  0  0  0  0  0
   -2.2840    1.7915    0.1849 C   0  0  0  0  0  0  0  0  0  0  0  0
   -3.0680    2.7634    1.0457 C   0  0  0  0  0  0  0  0  0  0  0  0
   -4.4097    3.1193    0.4468 C   0  0  0  0  0  0  0  0  0  0  0  0
   -5.0942    3.9362    1.4506 N   0  0  0  0  0  0  0  0  0  0  0  0
   -5.2801    1.9272    0.1935 C   0  0  0  0  0  0  0  0  0  0  0  0
   -4.4341    0.7457   -0.2314 C   0  0  0  0  0  0  0  0  0  0  0  0
   -0.8287   -1.0317   -0.8013 C   0  0  0  0  0  0  0  0  0  0  0  0
    0.2619   -0.2806   -0.7330 N   0  0  0  0  0  0  0  0  0  0  0  0
   -2.3427   -4.2325   -0.0996 C   0  0  0  0  0  0  0  0  0  0  0  0
   -3.0491   -5.0293   -0.9686 C   0  0  0  0  0  0  0  0  0  0  0  0
   -3.4295   -6.3185   -0.6583 C   0  0  0  0  0  0  0  0  0  0  0  0
   -3.0776   -6.8110    0.5795 C   0  0  0  0  0  0  0  0  0  0  0  0
   -2.3641   -6.0368    1.4847 C   0  0  0  0  0  0  0  0  0  0  0  0
   -2.0025   -4.7426    1.1276 C   0  0  0  0  0  0  0  0  0  0  0  0
    5.8186    0.8597    1.2277 C   0  0  0  0  0  0  0  0  0  0  0  0
    6.7923    1.8269    1.1665 C   0  0  0  0  0  0  0  0  0  0  0  0
    9.2916    2.7247    1.2899 H   0  0  0  0  0  0  0  0  0  0  0  0
    9.6385    4.4285    0.9349 H   0  0  0  0  0  0  0  0  0  0  0  0
    8.3866    4.0551    2.1329 H   0  0  0  0  0  0  0  0  0  0  0  0
    5.8483    3.5167   -1.5367 H   0  0  0  0  0  0  0  0  0  0  0  0
    4.0839    1.8299   -1.5015 H   0  0  0  0  0  0  0  0  0  0  0  0
    3.6235   -0.4937    1.4147 H   0  0  0  0  0  0  0  0  0  0  0  0
    4.1668   -1.0882   -0.1885 H   0  0  0  0  0  0  0  0  0  0  0  0
    2.4260    1.1719   -0.5798 H   0  0  0  0  0  0  0  0  0  0  0  0
    0.5677   -3.7534    0.6495 H   0  0  0  0  0  0  0  0  0  0  0  0
   -3.3357    0.1470   -2.6533 H   0  0  0  0  0  0  0  0  0  0  0  0
   -1.7582    0.9112   -2.3933 H   0  0  0  0  0  0  0  0  0  0  0  0
   -3.5308    2.2071   -1.4692 H   0  0  0  0  0  0  0  0  0  0  0  0
   -1.3467    2.2536   -0.2005 H   0  0  0  0  0  0  0  0  0  0  0  0
   -2.0462    0.9216    0.8457 H   0  0  0  0  0  0  0  0  0  0  0  0
   -2.5082    3.7076    1.2028 H   0  0  0  0  0  0  0  0  0  0  0  0
   -3.2723    2.3624    2.0650 H   0  0  0  0  0  0  0  0  0  0  0  0
   -4.2993    3.7869   -0.4391 H   0  0  0  0  0  0  0  0  0  0  0  0
   -6.1162    4.0106    1.2347 H   0  0  0  0  0  0  0  0  0  0  0  0
   -4.6499    4.8771    1.4166 H   0  0  0  0  0  0  0  0  0  0  0  0
   -5.9457    1.6741    1.0442 H   0  0  0  0  0  0  0  0  0  0  0  0
   -5.9803    2.1184   -0.6719 H   0  0  0  0  0  0  0  0  0  0  0  0
   -4.9585    0.0791   -0.9373 H   0  0  0  0  0  0  0  0  0  0  0  0
   -4.1035    0.2112    0.6873 H   0  0  0  0  0  0  0  0  0  0  0  0
   -3.3173   -4.6346   -1.9295 H   0  0  0  0  0  0  0  0  0  0  0  0
   -3.9826   -6.9251   -1.3542 H   0  0  0  0  0  0  0  0  0  0  0  0
   -3.3544   -7.8308    0.8791 H   0  0  0  0  0  0  0  0  0  0  0  0
   -2.0952   -6.4302    2.4459 H   0  0  0  0  0  0  0  0  0  0  0  0
   -1.4498   -4.1825    1.8672 H   0  0  0  0  0  0  0  0  0  0  0  0
    5.8193    0.1066    2.0201 H   0  0  0  0  0  0  0  0  0  0  0  0
    7.5651    1.8191    1.9333 H   0  0  0  0  0  0  0  0  0  0  0  0
  1  2  1  0
  2  3  1  0
  3  4  2  0
  4  5  1  0
  5  6  2  0
  6  7  1  0
  7  8  1  0
  8  9  1  0
  9 10  2  0
 10 11  1  0
 11 12  2  0
 12 13  1  0
 13 14  2  0
 14 15  1  0
 15 16  1  0
 16 17  1  0
 17 18  1  0
 18 19  1  0
 19 20  1  0
 20 21  1  0
 20 22  1  0
 22 23  1  0
 15 24  1  0
 24 25  2  0
 13 26  1  0
 26 27  2  0
 27 28  1  0
 28 29  2  0
 29 30  1  0
 30 31  2  0
  6 32  1  0
 32 33  2  0
 33  3  1  0
 25  9  1  0
 31 26  1  0
 24 12  1  0
 23 17  1  0
  1 34  1  0
  1 35  1  0
  1 36  1  0
  4 37  1  0
  5 38  1  0
  7 39  1  0
  7 40  1  0
  8 41  1  0
 11 42  1  0
 16 43  1  0
 16 44  1  0
 17 45  1  0
 18 46  1  0
 18 47  1  0
 19 48  1  0
 19 49  1  0
 20 50  1  0
 21 51  1  0
 21 52  1  0
 22 53  1  0
 22 54  1  0
 23 55  1  0
 23 56  1  0
 27 57  1  0
 28 58  1  0
 29 59  1  0
 30 60  1  0
 31 61  1  0
 32 62  1  0
 33 63  1  0
M  END
$$$$
[H]O[C@]1([H])C([H])([H])C([H])([H])[C@@]([H])(N([H])c2nc(N([H])C([H])([H])C([H])([H])C([H])([H])C([H])([H])[H])nc([H])c2C(=O)N([H])C([H])([H])C2([H])C([H])([H])C([H])([H])N(C([H])(C([H])([H])[H])C([H])([H])[H])C([H])([H])C2([H])[H])C([H])([H])C1([H])[H]
     RDKit          3D

 74 76  0  0  0  0  0  0  0  0999 V2000
    7.2703    3.4569    1.0333 C   0  0  0  0  0  0  0  0  0  0  0  0
    5.9058    3.3096    1.6598 C   0  0  0  0  0  0  0  0  0  0  0  0
    4.8857    3.9201    0.7083 C   0  0  0  0  0  0  0  0  0  0  0  0
    4.8938    3.2331   -0.6229 C   0  0  0  0  0  0  0  0  0  0  0  0
    4.5980    1.8464   -0.6142 N   0  0  0  0  0  0  0  0  0  0  0  0
    3.3191    1.3777   -0.1857 C   0  0  0  0  0  0  0  0  0  0  0  0
    2.3480    2.1977    0.2184 N   0  0  0  0  0  0  0  0  0  0  0  0
    1.1388    1.8216    0.6280 C   0  0  0  0  0  0  0  0  0  0  0  0
    0.8209    0.4575    0.6511 C   0  0  0  0  0  0  0  0  0  0  0  0
   -0.5052    0.0819    1.0890 C   0  0  0  0  0  0  0  0  0  0  0  0
   -0.8478   -1.1222    1.1055 O   0  0  0  0  0  0  0  0  0  0  0  0
   -1.5077    0.9798    1.5239 N   0  0  0  0  0  0  0  0  0  0  0  0
   -2.8102    0.5590    1.9458 C   0  0  0  0  0  0  0  0  0  0  0  0
   -3.6343   -0.1502    0.9077 C   0  0  0  0  0  0  0  0  0  0  0  0
   -3.8861    0.6969   -0.3102 C   0  0  0  0  0  0  0  0  0  0  0  0
   -5.3530    1.0560   -0.3941 C   0  0  0  0  0  0  0  0  0  0  0  0
   -6.1100   -0.1466   -0.5172 N   0  0  0  0  0  0  0  0  0  0  0  0
   -6.0174   -0.9317    0.6654 C   0  0  0  0  0  0  0  0  0  0  0  0
   -5.0004   -0.3606    1.5890 C   0  0  0  0  0  0  0  0  0  0  0  0
   -7.4707    0.1986   -0.8746 C   0  0  0  0  0  0  0  0  0  0  0  0
   -7.4218    0.8842   -2.2243 C   0  0  0  0  0  0  0  0  0  0  0  0
   -7.9887    1.1788    0.1411 C   0  0  0  0  0  0  0  0  0  0  0  0
    1.8063   -0.4074    0.2394 C   0  0  0  0  0  0  0  0  0  0  0  0
    1.5969   -1.8125    0.2526 N   0  0  0  0  0  0  0  0  0  0  0  0
    2.7236   -2.6308   -0.2436 C   0  0  1  0  0  0  0  0  0  0  0  0
    2.4447   -4.1142    0.0026 C   0  0  0  0  0  0  0  0  0  0  0  0
    3.2331   -4.9475   -0.9705 C   0  0  0  0  0  0  0  0  0  0  0  0
    4.5089   -4.2564   -1.4257 C   0  0  2  0  0  0  0  0  0  0  0  0
    5.3973   -4.0536   -0.3929 O   0  0  0  0  0  0  0  0  0  0  0  0
    4.1996   -2.9566   -2.1374 C   0  0  0  0  0  0  0  0  0  0  0  0
    2.8024   -2.4836   -1.7461 C   0  0  0  0  0  0  0  0  0  0  0  0
    3.0238    0.0700   -0.1668 N   0  0  0  0  0  0  0  0  0  0  0  0
    7.3490    4.3487    0.3851 H   0  0  0  0  0  0  0  0  0  0  0  0
    8.0124    3.5990    1.8691 H   0  0  0  0  0  0  0  0  0  0  0  0
    7.5093    2.5066    0.4906 H   0  0  0  0  0  0  0  0  0  0  0  0
    5.8606    3.7972    2.6541 H   0  0  0  0  0  0  0  0  0  0  0  0
    5.6213    2.2303    1.7558 H   0  0  0  0  0  0  0  0  0  0  0  0
    5.2005    4.9864    0.5022 H   0  0  0  0  0  0  0  0  0  0  0  0
    3.9209    3.9324    1.2330 H   0  0  0  0  0  0  0  0  0  0  0  0
    4.1187    3.7562   -1.2456 H   0  0  0  0  0  0  0  0  0  0  0  0
    5.9147    3.4232   -1.0644 H   0  0  0  0  0  0  0  0  0  0  0  0
    5.3051    1.1503   -0.9183 H   0  0  0  0  0  0  0  0  0  0  0  0
    0.3883    2.5406    0.9457 H   0  0  0  0  0  0  0  0  0  0  0  0
   -1.2993    1.9941    1.5430 H   0  0  0  0  0  0  0  0  0  0  0  0
   -2.6889   -0.1943    2.7838 H   0  0  0  0  0  0  0  0  0  0  0  0
   -3.4202    1.3527    2.3698 H   0  0  0  0  0  0  0  0  0  0  0  0
   -3.2000   -1.1252    0.6276 H   0  0  0  0  0  0  0  0  0  0  0  0
   -3.6819    0.0680   -1.2221 H   0  0  0  0  0  0  0  0  0  0  0  0
   -3.3135    1.6394   -0.3198 H   0  0  0  0  0  0  0  0  0  0  0  0
   -5.4649    1.6620   -1.3358 H   0  0  0  0  0  0  0  0  0  0  0  0
   -5.6773    1.7382    0.4240 H   0  0  0  0  0  0  0  0  0  0  0  0
   -5.6785   -1.9739    0.4171 H   0  0  0  0  0  0  0  0  0  0  0  0
   -6.9737   -0.9962    1.2234 H   0  0  0  0  0  0  0  0  0  0  0  0
   -4.8202   -1.0342    2.4809 H   0  0  0  0  0  0  0  0  0  0  0  0
   -5.2598    0.6139    2.0420 H   0  0  0  0  0  0  0  0  0  0  0  0
   -8.0826   -0.7347   -0.9031 H   0  0  0  0  0  0  0  0  0  0  0  0
   -6.5501    0.5075   -2.8268 H   0  0  0  0  0  0  0  0  0  0  0  0
   -8.3332    0.6269   -2.8025 H   0  0  0  0  0  0  0  0  0  0  0  0
   -7.3454    1.9815   -2.1339 H   0  0  0  0  0  0  0  0  0  0  0  0
   -7.6598    0.9523    1.1694 H   0  0  0  0  0  0  0  0  0  0  0  0
   -9.1047    1.1016    0.1206 H   0  0  0  0  0  0  0  0  0  0  0  0
   -7.6316    2.2007   -0.1072 H   0  0  0  0  0  0  0  0  0  0  0  0
    0.7733   -2.3259    0.5636 H   0  0  0  0  0  0  0  0  0  0  0  0
    3.6287   -2.2918    0.2826 H   0  0  0  0  0  0  0  0  0  0  0  0
    2.7751   -4.3205    1.0405 H   0  0  0  0  0  0  0  0  0  0  0  0
    1.3550   -4.2917   -0.0519 H   0  0  0  0  0  0  0  0  0  0  0  0
    2.6392   -5.1706   -1.8843 H   0  0  0  0  0  0  0  0  0  0  0  0
    3.5483   -5.8998   -0.4867 H   0  0  0  0  0  0  0  0  0  0  0  0
    4.9750   -4.9314   -2.1762 H   0  0  0  0  0  0  0  0  0  0  0  0
    5.0668   -4.4634    0.4281 H   0  0  0  0  0  0  0  0  0  0  0  0
    4.2220   -3.0673   -3.2403 H   0  0  0  0  0  0  0  0  0  0  0  0
    4.9035   -2.1484   -1.8560 H   0  0  0  0  0  0  0  0  0  0  0  0
    2.6671   -1.4784   -2.1314 H   0  0  0  0  0  0  0  0  0  0  0  0
    2.0671   -3.2142   -2.1805 H   0  0  0  0  0  0  0  0  0  0  0  0
  1  2  1  0
  2  3  1  0
  3  4  1  0
  4  5  1  0
  5  6  1  0
  6  7  2  0
  7  8  1  0
  8  9  2  0
  9 10  1  0
 10 11  2  0
 10 12  1  0
 12 13  1  0
 13 14  1  0
 14 15  1  0
 15 16  1  0
 16 17  1  0
 17 18  1  0
 18 19  1  0
 17 20  1  0
 20 21  1  0
 20 22  1  0
  9 23  1  0
 23 24  1  0
 24 25  1  0
 25 26  1  0
 26 27  1  0
 27 28  1  0
 28 29  1  0
 28 30  1  0
 30 31  1  0
 23 32  2  0
 32  6  1  0
 19 14  1  0
 31 25  1  0
  1 33  1  0
  1 34  1  0
  1 35  1  0
  2 36  1  0
  2 37  1  0
  3 38  1  0
  3 39  1  0
  4 40  1  0
  4 41  1  0
  5 42  1  0
  8 43  1  0
 12 44  1  0
 13 45  1  0
 13 46  1  0
 14 47  1  0
 15 48  1  0
 15 49  1  0
 16 50  1  0
 16 51  1  0
 18 52  1  0
 18 53  1  0
 19 54  1  0
 19 55  1  0
 20 56  1  0
 21 57  1  0
 21 58  1  0
 21 59  1  0
 22 60  1  0
 22 61  1  0
 22 62  1  0
 24 63  1  0
 25 64  1  1
 26 65  1  0
 26 66  1  0
 27 67  1  0
 27 68  1  0
 28 69  1  6
 29 70  1  0
 30 71  1  0
 30 72  1  0
 31 73  1  0
 31 74  1  0
M  END
$$$$
[H]OC1([H])C([H])([H])C([H])([H])C([H])(n2nc(-c3c([H])c([H])c(N([H])C(=O)C4([H])C([H])([H])C4([H])[H])c([H])c3[H])c3c([H])nc(N([H])C([H])([H])C([H])([H])C([H])([H])C([H])([H])[H])nc32)C([H])([H])C1([H])[H]
     RDKit          3D

 65 69  0  0  0  0  0  0  0  0999 V2000
   -7.5453   -4.3167   -0.9571 C   0  0  0  0  0  0  0  0  0  0  0  0
   -6.2992   -3.5803   -0.5015 C   0  0  0  0  0  0  0  0  0  0  0  0
   -6.1463   -2.3644   -1.3560 C   0  0  0  0  0  0  0  0  0  0  0  0
   -4.9349   -1.5404   -1.0005 C   0  0  0  0  0  0  0  0  0  0  0  0
   -3.7299   -2.3187   -1.1535 N   0  0  0  0  0  0  0  0  0  0  0  0
   -2.4576   -1.7340   -0.8692 C   0  0  0  0  0  0  0  0  0  0  0  0
   -1.3339   -2.4593   -1.0116 N   0  0  0  0  0  0  0  0  0  0  0  0
   -0.0963   -1.9934   -0.7676 C   0  0  0  0  0  0  0  0  0  0  0  0
    0.0394   -0.6912   -0.3441 C   0  0  0  0  0  0  0  0  0  0  0  0
    1.0724    0.1457    0.0002 C   0  0  0  0  0  0  0  0  0  0  0  0
    0.5605    1.3216    0.3319 N   0  0  0  0  0  0  0  0  0  0  0  0
   -0.7564    1.2613    0.2111 N   0  0  0  0  0  0  0  0  0  0  0  0
   -1.6125    2.3850    0.4998 C   0  0  0  0  0  0  0  0  0  0  0  0
   -1.5112    3.4810   -0.5400 C   0  0  0  0  0  0  0  0  0  0  0  0
   -2.1283    4.7185    0.0935 C   0  0  0  0  0  0  0  0  0  0  0  0
   -3.5260    4.5071    0.5539 C   0  0  0  0  0  0  0  0  0  0  0  0
   -3.8511    5.5595    1.4338 O   0  0  0  0  0  0  0  0  0  0  0  0
   -3.7498    3.2242    1.2992 C   0  0  0  0  0  0  0  0  0  0  0  0
   -3.0492    2.0431    0.6693 C   0  0  0  0  0  0  0  0  0  0  0  0
   -1.1218    0.0381   -0.2034 C   0  0  0  0  0  0  0  0  0  0  0  0
   -2.3476   -0.4585   -0.4563 N   0  0  0  0  0  0  0  0  0  0  0  0
    2.4792   -0.2073   -0.0061 C   0  0  0  0  0  0  0  0  0  0  0  0
    2.9160   -1.3859    0.5451 C   0  0  0  0  0  0  0  0  0  0  0  0
    4.2437   -1.7269    0.5391 C   0  0  0  0  0  0  0  0  0  0  0  0
    5.2308   -0.9044   -0.0234 C   0  0  0  0  0  0  0  0  0  0  0  0
    6.5552   -1.3534    0.0103 N   0  0  0  0  0  0  0  0  0  0  0  0
    7.6701   -0.5515   -0.2627 C   0  0  0  0  0  0  0  0  0  0  0  0
    7.6379    0.6403   -0.5608 O   0  0  0  0  0  0  0  0  0  0  0  0
    9.0366   -1.2007   -0.1864 C   0  0  0  0  0  0  0  0  0  0  0  0
   10.1496   -0.5677   -0.9759 C   0  0  0  0  0  0  0  0  0  0  0  0
   10.0943   -0.3652    0.4933 C   0  0  0  0  0  0  0  0  0  0  0  0
    4.7676    0.2657   -0.5670 C   0  0  0  0  0  0  0  0  0  0  0  0
    3.4182    0.6208   -0.5651 C   0  0  0  0  0  0  0  0  0  0  0  0
   -8.4345   -3.8583   -0.4374 H   0  0  0  0  0  0  0  0  0  0  0  0
   -7.6577   -4.1379   -2.0350 H   0  0  0  0  0  0  0  0  0  0  0  0
   -7.5005   -5.4047   -0.7013 H   0  0  0  0  0  0  0  0  0  0  0  0
   -5.4394   -4.2636   -0.6722 H   0  0  0  0  0  0  0  0  0  0  0  0
   -6.3492   -3.3701    0.5718 H   0  0  0  0  0  0  0  0  0  0  0  0
   -7.0511   -1.7299   -1.2376 H   0  0  0  0  0  0  0  0  0  0  0  0
   -6.1055   -2.6749   -2.4148 H   0  0  0  0  0  0  0  0  0  0  0  0
   -5.0363   -1.1077    0.0150 H   0  0  0  0  0  0  0  0  0  0  0  0
   -4.8689   -0.7138   -1.7581 H   0  0  0  0  0  0  0  0  0  0  0  0
   -3.7947   -3.2902   -1.4665 H   0  0  0  0  0  0  0  0  0  0  0  0
    0.7951   -2.5847   -0.8879 H   0  0  0  0  0  0  0  0  0  0  0  0
   -1.2530    2.8314    1.4687 H   0  0  0  0  0  0  0  0  0  0  0  0
   -2.1148    3.2526   -1.4483 H   0  0  0  0  0  0  0  0  0  0  0  0
   -0.4690    3.7291   -0.7711 H   0  0  0  0  0  0  0  0  0  0  0  0
   -1.4420    5.0303    0.9099 H   0  0  0  0  0  0  0  0  0  0  0  0
   -2.1179    5.5132   -0.6821 H   0  0  0  0  0  0  0  0  0  0  0  0
   -4.2317    4.6074   -0.2996 H   0  0  0  0  0  0  0  0  0  0  0  0
   -3.8632    6.4298    0.9606 H   0  0  0  0  0  0  0  0  0  0  0  0
   -4.8479    3.0067    1.2516 H   0  0  0  0  0  0  0  0  0  0  0  0
   -3.4804    3.2655    2.3636 H   0  0  0  0  0  0  0  0  0  0  0  0
   -3.5521    1.8316   -0.3105 H   0  0  0  0  0  0  0  0  0  0  0  0
   -3.2020    1.1830    1.3585 H   0  0  0  0  0  0  0  0  0  0  0  0
    2.1539   -2.0367    0.9913 H   0  0  0  0  0  0  0  0  0  0  0  0
    4.4961   -2.6740    0.9961 H   0  0  0  0  0  0  0  0  0  0  0  0
    6.6799   -2.3861    0.2609 H   0  0  0  0  0  0  0  0  0  0  0  0
    9.0585   -2.2608    0.0793 H   0  0  0  0  0  0  0  0  0  0  0  0
   10.9029   -1.2245   -1.4232 H   0  0  0  0  0  0  0  0  0  0  0  0
    9.8580    0.2888   -1.6258 H   0  0  0  0  0  0  0  0  0  0  0  0
   10.8506   -0.8824    1.1216 H   0  0  0  0  0  0  0  0  0  0  0  0
    9.7840    0.6093    0.9202 H   0  0  0  0  0  0  0  0  0  0  0  0
    5.4382    0.9650   -1.0339 H   0  0  0  0  0  0  0  0  0  0  0  0
    3.1207    1.5645   -1.0136 H   0  0  0  0  0  0  0  0  0  0  0  0
  1  2  1  0
  2  3  1  0
  3  4  1  0
  4  5  1  0
  5  6  1  0
  6  7  2  0
  7  8  1  0
  8  9  2  0
  9 10  1  0
 10 11  2  0
 11 12  1  0
 12 13  1  0
 13 14  1  0
 14 15  1  0
 15 16  1  0
 16 17  1  0
 16 18  1  0
 18 19  1  0
 12 20  1  0
 20 21  2  0
 10 22  1  0
 22 23  2  0
 23 24  1  0
 24 25  2  0
 25 26  1  0
 26 27  1  0
 27 28  2  0
 27 29  1  0
 29 30  1  0
 30 31  1  0
 25 32  1  0
 32 33  2  0
 21  6  1  0
 33 22  1  0
 20  9  1  0
 31 29  1  0
 19 13  1  0
  1 34  1  0
  1 35  1  0
  1 36  1  0
  2 37  1  0
  2 38  1  0
  3 39  1  0
  3 40  1  0
  4 41  1  0
  4 42  1  0
  5 43  1  0
  8 44  1  0
 13 45  1  0
 14 46  1  0
 14 47  1  0
 15 48  1  0
 15 49  1  0
 16 50  1  0
 17 51  1  0
 18 52  1  0
 18 53  1  0
 19 54  1  0
 19 55  1  0
 23 56  1  0
 24 57  1  0
 26 58  1  0
 29 59  1  0
 30 60  1  0
 30 61  1  0
 31 62  1  0
 31 63  1  0
 32 64  1  0
 33 65  1  0
M  END
$$$$
[H]c1nc(N([H])[H])c2c(-c3c([H])c([H])c(N([H])C(=O)c4c([H])n(C([H])(C([H])([H])[H])C([H])([H])[H])c(=O)n(-c5c([H])c([H])c([H])c(F)c5[H])c4=O)c([H])c3[H])c([H])c(C(=O)N(C([H])([H])[H])C([H])([H])[H])n2n1
     RDKit          3D

 69 73  0  0  0  0  0  0  0  0999 V2000
   -7.3727    0.1915   -3.3130 C   0  0  0  0  0  0  0  0  0  0  0  0
   -6.5189   -0.9712   -2.8526 C   0  0  0  0  0  0  0  0  0  0  0  0
   -5.5233   -1.2831   -3.9645 C   0  0  0  0  0  0  0  0  0  0  0  0
   -5.7624   -0.6372   -1.6613 N   0  0  0  0  0  0  0  0  0  0  0  0
   -4.4290   -0.7029   -1.6238 C   0  0  0  0  0  0  0  0  0  0  0  0
   -3.6528   -0.3897   -0.4981 C   0  0  0  0  0  0  0  0  0  0  0  0
   -2.2028   -0.4670   -0.5708 C   0  0  0  0  0  0  0  0  0  0  0  0
   -1.7640   -1.1996   -1.5311 O   0  0  0  0  0  0  0  0  0  0  0  0
   -1.2748    0.1507    0.2607 N   0  0  0  0  0  0  0  0  0  0  0  0
    0.1355    0.0538    0.1913 C   0  0  0  0  0  0  0  0  0  0  0  0
    0.9033    1.0984    0.6759 C   0  0  0  0  0  0  0  0  0  0  0  0
    2.2792    1.0942    0.6847 C   0  0  0  0  0  0  0  0  0  0  0  0
    2.9702    0.0102    0.1935 C   0  0  0  0  0  0  0  0  0  0  0  0
    2.2258   -1.0582   -0.3026 C   0  0  0  0  0  0  0  0  0  0  0  0
    0.8473   -1.0239   -0.2976 C   0  0  0  0  0  0  0  0  0  0  0  0
    4.4218   -0.0329    0.2006 C   0  0  0  0  0  0  0  0  0  0  0  0
    5.2037   -0.0312   -0.9268 C   0  0  0  0  0  0  0  0  0  0  0  0
    6.5765   -0.0231   -0.5639 C   0  0  0  0  0  0  0  0  0  0  0  0
    7.6603   -0.0602   -1.4904 C   0  0  0  0  0  0  0  0  0  0  0  0
    7.2038   -0.2301   -2.7542 O   0  0  0  0  0  0  0  0  0  0  0  0
    9.0134    0.0368   -1.3855 N   0  0  0  0  0  0  0  0  0  0  0  0
    9.7387   -0.1139   -2.7175 C   0  0  0  0  0  0  0  0  0  0  0  0
    9.8858    0.2879   -0.3077 C   0  0  0  0  0  0  0  0  0  0  0  0
    6.5772   -0.0221    0.7815 N   0  0  0  0  0  0  0  0  0  0  0  0
    7.5281   -0.0353    1.6738 N   0  0  0  0  0  0  0  0  0  0  0  0
    7.3504   -0.0557    2.9712 C   0  0  0  0  0  0  0  0  0  0  0  0
    6.1119   -0.0643    3.4548 N   0  0  0  0  0  0  0  0  0  0  0  0
    5.0733   -0.0517    2.6162 C   0  0  0  0  0  0  0  0  0  0  0  0
    3.7339   -0.0926    3.0946 N   0  0  0  0  0  0  0  0  0  0  0  0
    5.2785   -0.0287    1.2443 C   0  0  0  0  0  0  0  0  0  0  0  0
   -4.3748    0.0025    0.6020 C   0  0  0  0  0  0  0  0  0  0  0  0
   -3.7946    0.3097    1.6774 O   0  0  0  0  0  0  0  0  0  0  0  0
   -5.7326    0.0743    0.5793 N   0  0  0  0  0  0  0  0  0  0  0  0
   -6.3900    0.4791    1.7581 C   0  0  0  0  0  0  0  0  0  0  0  0
   -7.3779   -0.3495    2.2951 C   0  0  0  0  0  0  0  0  0  0  0  0
   -8.0370   -0.0036    3.4343 C   0  0  0  0  0  0  0  0  0  0  0  0
   -7.7551    1.1887    4.1108 C   0  0  0  0  0  0  0  0  0  0  0  0
   -6.7833    2.0005    3.5786 C   0  0  0  0  0  0  0  0  0  0  0  0
   -6.5083    3.1537    4.2294 F   0  0  0  0  0  0  0  0  0  0  0  0
   -6.1102    1.6570    2.4242 C   0  0  0  0  0  0  0  0  0  0  0  0
   -6.3796   -0.2397   -0.5262 C   0  0  0  0  0  0  0  0  0  0  0  0
   -7.6457   -0.1732   -0.5489 O   0  0  0  0  0  0  0  0  0  0  0  0
   -8.3756    0.2195   -2.8692 H   0  0  0  0  0  0  0  0  0  0  0  0
   -6.8198    1.1369   -3.2158 H   0  0  0  0  0  0  0  0  0  0  0  0
   -7.5449    0.0376   -4.4153 H   0  0  0  0  0  0  0  0  0  0  0  0
   -7.1114   -1.8705   -2.6434 H   0  0  0  0  0  0  0  0  0  0  0  0
   -4.9177   -0.3674   -4.1386 H   0  0  0  0  0  0  0  0  0  0  0  0
   -4.9451   -2.1902   -3.7812 H   0  0  0  0  0  0  0  0  0  0  0  0
   -6.0718   -1.4429   -4.9324 H   0  0  0  0  0  0  0  0  0  0  0  0
   -3.8880   -1.0160   -2.5147 H   0  0  0  0  0  0  0  0  0  0  0  0
   -1.6262    0.7794    1.0442 H   0  0  0  0  0  0  0  0  0  0  0  0
    0.3649    1.9768    1.0732 H   0  0  0  0  0  0  0  0  0  0  0  0
    2.8435    1.9578    1.0766 H   0  0  0  0  0  0  0  0  0  0  0  0
    2.7685   -1.9104   -0.6881 H   0  0  0  0  0  0  0  0  0  0  0  0
    0.2793   -1.8826   -0.6787 H   0  0  0  0  0  0  0  0  0  0  0  0
    4.8803   -0.0320   -1.9545 H   0  0  0  0  0  0  0  0  0  0  0  0
   10.8095   -0.1249   -2.5601 H   0  0  0  0  0  0  0  0  0  0  0  0
    9.3237   -1.0663   -3.1075 H   0  0  0  0  0  0  0  0  0  0  0  0
    9.3797    0.7186   -3.3432 H   0  0  0  0  0  0  0  0  0  0  0  0
   10.0041   -0.5966    0.3372 H   0  0  0  0  0  0  0  0  0  0  0  0
   10.9461    0.5468   -0.6960 H   0  0  0  0  0  0  0  0  0  0  0  0
    9.6580    1.1772    0.3079 H   0  0  0  0  0  0  0  0  0  0  0  0
    8.2306   -0.0649    3.6370 H   0  0  0  0  0  0  0  0  0  0  0  0
    3.3656    0.7225    3.6214 H   0  0  0  0  0  0  0  0  0  0  0  0
    3.1796   -0.9498    2.8917 H   0  0  0  0  0  0  0  0  0  0  0  0
   -7.5994   -1.2593    1.7881 H   0  0  0  0  0  0  0  0  0  0  0  0
   -8.8056   -0.6738    3.8314 H   0  0  0  0  0  0  0  0  0  0  0  0
   -8.3069    1.4225    5.0170 H   0  0  0  0  0  0  0  0  0  0  0  0
   -5.3499    2.3036    2.0175 H   0  0  0  0  0  0  0  0  0  0  0  0
  1  2  1  0
  2  3  1  0
  2  4  1  0
  4  5  1  0
  5  6  2  0
  6  7  1  0
  7  8  2  0
  7  9  1  0
  9 10  1  0
 10 11  2  0
 11 12  1  0
 12 13  2  0
 13 14  1  0
 14 15  2  0
 13 16  1  0
 16 17  1  0
 17 18  2  0
 18 19  1  0
 19 20  2  0
 19 21  1  0
 21 22  1  0
 21 23  1  0
 18 24  1  0
 24 25  1  0
 25 26  2  0
 26 27  1  0
 27 28  2  0
 28 29  1  0
 28 30  1  0
  6 31  1  0
 31 32  2  0
 31 33  1  0
 33 34  1  0
 34 35  2  0
 35 36  1  0
 36 37  2  0
 37 38  1  0
 38 39  1  0
 38 40  2  0
 33 41  1  0
 41 42  2  0
 41  4  1  0
 15 10  1  0
 30 16  2  0
 40 34  1  0
 30 24  1  0
  1 43  1  0
  1 44  1  0
  1 45  1  0
  2 46  1  0
  3 47  1  0
  3 48  1  0
  3 49  1  0
  5 50  1  0
  9 51  1  0
 11 52  1  0
 12 53  1  0
 14 54  1  0
 15 55  1  0
 17 56  1  0
 22 57  1  0
 22 58  1  0
 22 59  1  0
 23 60  1  0
 23 61  1  0
 23 62  1  0
 26 63  1  0
 29 64  1  0
 29 65  1  0
 35 66  1  0
 36 67  1  0
 37 68  1  0
 40 69  1  0
M  END
$$$$
[H]OC(C([H])([H])[H])(C([H])([H])[H])C1([H])C([H])([H])C([H])([H])N(C([H])([H])c2c([H])c([H])c3nc(N([H])C(=O)c4c([H])c([H])c(F)c([H])c4[H])n([C@]4([H])C([H])([H])C([H])([H])[C@]([H])(C(=O)N([H])C([H])(C([H])([H])[H])C([H])([H])[H])C([H])([H])C4([H])[H])c3c2[H])C([H])([H])C1([H])[H]
     RDKit          3D

 86 90  0  0  0  0  0  0  0  0999 V2000
   -7.2596   -1.9504    3.1182 C   0  0  0  0  0  0  0  0  0  0  0  0
   -7.4924   -1.9180    1.6020 C   0  0  0  0  0  0  0  0  0  0  0  0
   -8.0737   -3.2652    1.2324 C   0  0  0  0  0  0  0  0  0  0  0  0
   -6.2022   -1.7573    0.9957 N   0  0  0  0  0  0  0  0  0  0  0  0
   -5.7978   -0.6659    0.2045 C   0  0  0  0  0  0  0  0  0  0  0  0
   -6.5956    0.2995   -0.0373 O   0  0  0  0  0  0  0  0  0  0  0  0
   -4.4478   -0.5882   -0.3757 C   0  0  1  0  0  0  0  0  0  0  0  0
   -4.2205    0.6936   -1.1327 C   0  0  0  0  0  0  0  0  0  0  0  0
   -2.8712    0.6927   -1.7415 C   0  0  0  0  0  0  0  0  0  0  0  0
   -1.6817    0.3897   -0.9219 C   0  0  2  0  0  0  0  0  0  0  0  0
   -2.0674   -0.6913    0.0226 C   0  0  0  0  0  0  0  0  0  0  0  0
   -3.3840   -0.5100    0.7482 C   0  0  0  0  0  0  0  0  0  0  0  0
   -0.8144    1.3792   -0.4728 N   0  0  0  0  0  0  0  0  0  0  0  0
   -0.9699    2.6719   -0.2713 C   0  0  0  0  0  0  0  0  0  0  0  0
   -2.0241    3.5706   -0.4729 N   0  0  0  0  0  0  0  0  0  0  0  0
   -1.9450    4.9332   -0.1336 C   0  0  0  0  0  0  0  0  0  0  0  0
   -0.9130    5.4405    0.3946 O   0  0  0  0  0  0  0  0  0  0  0  0
   -3.0669    5.8227   -0.3838 C   0  0  0  0  0  0  0  0  0  0  0  0
   -2.8942    7.1924   -0.4362 C   0  0  0  0  0  0  0  0  0  0  0  0
   -3.9304    8.0538   -0.6678 C   0  0  0  0  0  0  0  0  0  0  0  0
   -5.2198    7.6099   -0.8646 C   0  0  0  0  0  0  0  0  0  0  0  0
   -6.2662    8.4394   -1.0964 F   0  0  0  0  0  0  0  0  0  0  0  0
   -5.3833    6.2333   -0.8098 C   0  0  0  0  0  0  0  0  0  0  0  0
   -4.3626    5.3472   -0.5796 C   0  0  0  0  0  0  0  0  0  0  0  0
    0.2068    3.2004    0.2160 N   0  0  0  0  0  0  0  0  0  0  0  0
    1.0972    2.2378    0.3171 C   0  0  0  0  0  0  0  0  0  0  0  0
    2.4104    2.2513    0.7467 C   0  0  0  0  0  0  0  0  0  0  0  0
    3.1103    1.0432    0.7358 C   0  0  0  0  0  0  0  0  0  0  0  0
    2.5451   -0.1234    0.3204 C   0  0  0  0  0  0  0  0  0  0  0  0
    3.2730   -1.4054    0.3203 C   0  0  0  0  0  0  0  0  0  0  0  0
    4.3574   -1.5323   -0.5630 N   0  0  0  0  0  0  0  0  0  0  0  0
    5.4972   -0.7140   -0.3863 C   0  0  0  0  0  0  0  0  0  0  0  0
    6.7854   -1.4404   -0.8470 C   0  0  0  0  0  0  0  0  0  0  0  0
    6.7804   -2.7173    0.0079 C   0  0  0  0  0  0  0  0  0  0  0  0
    5.7146   -3.6054   -0.5356 C   0  0  0  0  0  0  0  0  0  0  0  0
    4.5895   -2.7917   -1.1826 C   0  0  0  0  0  0  0  0  0  0  0  0
    8.1608   -3.2777    0.0096 C   0  0  0  0  0  0  0  0  0  0  0  0
    8.6552   -3.6239   -1.3771 C   0  0  0  0  0  0  0  0  0  0  0  0
    8.3099   -4.4553    0.9497 C   0  0  0  0  0  0  0  0  0  0  0  0
    9.0240   -2.2738    0.5022 O   0  0  0  0  0  0  0  0  0  0  0  0
    1.2051   -0.0672   -0.1046 C   0  0  0  0  0  0  0  0  0  0  0  0
    0.4713    1.0895   -0.1127 C   0  0  0  0  0  0  0  0  0  0  0  0
   -7.2689   -0.9169    3.5293 H   0  0  0  0  0  0  0  0  0  0  0  0
   -6.3086   -2.4581    3.3665 H   0  0  0  0  0  0  0  0  0  0  0  0
   -8.0722   -2.4994    3.6105 H   0  0  0  0  0  0  0  0  0  0  0  0
   -8.1871   -1.0882    1.3971 H   0  0  0  0  0  0  0  0  0  0  0  0
   -8.7212   -3.6257    2.0760 H   0  0  0  0  0  0  0  0  0  0  0  0
   -7.2594   -3.9834    1.1119 H   0  0  0  0  0  0  0  0  0  0  0  0
   -8.7262   -3.1796    0.3271 H   0  0  0  0  0  0  0  0  0  0  0  0
   -5.5108   -2.5300    1.1666 H   0  0  0  0  0  0  0  0  0  0  0  0
   -4.2338   -1.4464   -1.0203 H   0  0  0  0  0  0  0  0  0  0  0  0
   -4.3655    1.4880   -0.3370 H   0  0  0  0  0  0  0  0  0  0  0  0
   -4.9611    0.8438   -1.9454 H   0  0  0  0  0  0  0  0  0  0  0  0
   -2.9581   -0.1700   -2.5159 H   0  0  0  0  0  0  0  0  0  0  0  0
   -2.7125    1.5201   -2.4842 H   0  0  0  0  0  0  0  0  0  0  0  0
   -1.0408   -0.2594   -1.7013 H   0  0  0  0  0  0  0  0  0  0  0  0
   -1.2673   -1.0651    0.6896 H   0  0  0  0  0  0  0  0  0  0  0  0
   -2.2751   -1.5978   -0.6002 H   0  0  0  0  0  0  0  0  0  0  0  0
   -3.4163    0.4846    1.1916 H   0  0  0  0  0  0  0  0  0  0  0  0
   -3.4956   -1.3442    1.4476 H   0  0  0  0  0  0  0  0  0  0  0  0
   -2.9061    3.2579   -0.8983 H   0  0  0  0  0  0  0  0  0  0  0  0
   -1.8784    7.5828   -0.2822 H   0  0  0  0  0  0  0  0  0  0  0  0
   -3.7531    9.1301   -0.7026 H   0  0  0  0  0  0  0  0  0  0  0  0
   -6.4016    5.8421   -0.9636 H   0  0  0  0  0  0  0  0  0  0  0  0
   -4.5637    4.2668   -0.5436 H   0  0  0  0  0  0  0  0  0  0  0  0
    2.8778    3.1653    1.0787 H   0  0  0  0  0  0  0  0  0  0  0  0
    4.1199    1.0827    1.0743 H   0  0  0  0  0  0  0  0  0  0  0  0
    2.5275   -2.2251    0.0738 H   0  0  0  0  0  0  0  0  0  0  0  0
    3.6192   -1.6888    1.3456 H   0  0  0  0  0  0  0  0  0  0  0  0
    5.6700   -0.6447    0.7352 H   0  0  0  0  0  0  0  0  0  0  0  0
    5.4271    0.2652   -0.8679 H   0  0  0  0  0  0  0  0  0  0  0  0
    7.6186   -0.7841   -0.5263 H   0  0  0  0  0  0  0  0  0  0  0  0
    6.7713   -1.6530   -1.9148 H   0  0  0  0  0  0  0  0  0  0  0  0
    6.5506   -2.3537    1.0471 H   0  0  0  0  0  0  0  0  0  0  0  0
    6.0951   -4.3076   -1.2778 H   0  0  0  0  0  0  0  0  0  0  0  0
    5.2224   -4.1151    0.3391 H   0  0  0  0  0  0  0  0  0  0  0  0
    3.6769   -3.4207   -1.1354 H   0  0  0  0  0  0  0  0  0  0  0  0
    4.7887   -2.6525   -2.2692 H   0  0  0  0  0  0  0  0  0  0  0  0
    9.7441   -3.8350   -1.3077 H   0  0  0  0  0  0  0  0  0  0  0  0
    8.5078   -2.7129   -2.0270 H   0  0  0  0  0  0  0  0  0  0  0  0
    8.0673   -4.4582   -1.7577 H   0  0  0  0  0  0  0  0  0  0  0  0
    8.0566   -5.4260    0.4762 H   0  0  0  0  0  0  0  0  0  0  0  0
    7.7300   -4.2446    1.8518 H   0  0  0  0  0  0  0  0  0  0  0  0
    9.3844   -4.4987    1.2443 H   0  0  0  0  0  0  0  0  0  0  0  0
    8.7854   -1.9942    1.4158 H   0  0  0  0  0  0  0  0  0  0  0  0
    0.7325   -0.9684   -0.4546 H   0  0  0  0  0  0  0  0  0  0  0  0
  1  2  1  0
  2  3  1  0
  2  4  1  0
  4  5  1  0
  5  6  2  0
  5  7  1  0
  7  8  1  0
  8  9  1  0
  9 10  1  0
 10 11  1  0
 11 12  1  0
 10 13  1  0
 13 14  1  0
 14 15  1  0
 15 16  1  0
 16 17  2  0
 16 18  1  0
 18 19  2  0
 19 20  1  0
 20 21  2  0
 21 22  1  0
 21 23  1  0
 23 24  2  0
 14 25  2  0
 25 26  1  0
 26 27  2  0
 27 28  1  0
 28 29  2  0
 29 30  1  0
 30 31  1  0
 31 32  1  0
 32 33  1  0
 33 34  1  0
 34 35  1  0
 35 36  1  0
 34 37  1  0
 37 38  1  0
 37 39  1  0
 37 40  1  0
 29 41  1  0
 41 42  2  0
 12  7  1  0
 42 13  1  0
 24 18  1  0
 42 26  1  0
 36 31  1  0
  1 43  1  0
  1 44  1  0
  1 45  1  0
  2 46  1  0
  3 47  1  0
  3 48  1  0
  3 49  1  0
  4 50  1  0
  7 51  1  6
  8 52  1  0
  8 53  1  0
  9 54  1  0
  9 55  1  0
 10 56  1  6
 11 57  1  0
 11 58  1  0
 12 59  1  0
 12 60  1  0
 15 61  1  0
 19 62  1  0
 20 63  1  0
 23 64  1  0
 24 65  1  0
 27 66  1  0
 28 67  1  0
 30 68  1  0
 30 69  1  0
 32 70  1  0
 32 71  1  0
 33 72  1  0
 33 73  1  0
 34 74  1  0
 35 75  1  0
 35 76  1  0
 36 77  1  0
 36 78  1  0
 38 79  1  0
 38 80  1  0
 38 81  1  0
 39 82  1  0
 39 83  1  0
 39 84  1  0
 40 85  1  0
 41 86  1  0
M  END
$$$$
[H]O[C@]1([H])C([H])([H])C([H])([H])[C@@]([H])(N([H])c2nc(N([H])C([H])([H])C([H])([H])C([H])([H])C([H])([H])[H])nc([H])c2-c2nc(N3C([H])([H])C([H])([H])OC([H])([H])C3([H])[H])c([H])nc2[H])C([H])([H])C1([H])[H]
     RDKit          3D

 64 67  0  0  0  0  0  0  0  0999 V2000
    6.4321   -2.3752    1.4106 C   0  0  0  0  0  0  0  0  0  0  0  0
    4.9768   -2.6099    1.7636 C   0  0  0  0  0  0  0  0  0  0  0  0
    4.3047   -3.1192    0.4851 C   0  0  0  0  0  0  0  0  0  0  0  0
    4.4314   -2.1027   -0.5944 C   0  0  0  0  0  0  0  0  0  0  0  0
    3.8188   -0.8654   -0.2216 N   0  0  0  0  0  0  0  0  0  0  0  0
    2.4230   -0.7341   -0.0093 C   0  0  0  0  0  0  0  0  0  0  0  0
    1.5542   -1.7334   -0.1403 N   0  0  0  0  0  0  0  0  0  0  0  0
    0.2410   -1.6550    0.0507 C   0  0  0  0  0  0  0  0  0  0  0  0
   -0.2813   -0.3923    0.4282 C   0  0  0  0  0  0  0  0  0  0  0  0
    0.5758    0.6678    0.5709 C   0  0  0  0  0  0  0  0  0  0  0  0
    0.1480    2.0032    0.8181 N   0  0  0  0  0  0  0  0  0  0  0  0
    1.1362    3.0633    1.0231 C   0  0  1  0  0  0  0  0  0  0  0  0
    2.0355    3.2281   -0.1963 C   0  0  0  0  0  0  0  0  0  0  0  0
    2.2603    4.7363   -0.3715 C   0  0  0  0  0  0  0  0  0  0  0  0
    0.9631    5.2968   -0.9129 C   0  0  2  0  0  0  0  0  0  0  0  0
    1.0691    6.6564   -1.1955 O   0  0  0  0  0  0  0  0  0  0  0  0
   -0.1238    5.0118    0.0835 C   0  0  0  0  0  0  0  0  0  0  0  0
    0.3971    4.3331    1.3420 C   0  0  0  0  0  0  0  0  0  0  0  0
    1.8925    0.4711    0.3527 N   0  0  0  0  0  0  0  0  0  0  0  0
   -1.7088   -0.3712    0.6138 C   0  0  0  0  0  0  0  0  0  0  0  0
   -2.3157    0.3677    1.5755 C   0  0  0  0  0  0  0  0  0  0  0  0
   -3.6688    0.2876    1.7681 N   0  0  0  0  0  0  0  0  0  0  0  0
   -4.3911   -0.5366    0.9908 C   0  0  0  0  0  0  0  0  0  0  0  0
   -3.8047   -1.3071    0.0006 C   0  0  0  0  0  0  0  0  0  0  0  0
   -2.4815   -1.1793   -0.1335 N   0  0  0  0  0  0  0  0  0  0  0  0
   -4.6233   -2.1542   -0.7809 N   0  0  0  0  0  0  0  0  0  0  0  0
   -4.0279   -2.9675   -1.8167 C   0  0  0  0  0  0  0  0  0  0  0  0
   -4.7805   -4.2811   -1.8255 C   0  0  0  0  0  0  0  0  0  0  0  0
   -6.1320   -4.1488   -2.0294 O   0  0  0  0  0  0  0  0  0  0  0  0
   -6.6104   -2.8731   -1.8634 C   0  0  0  0  0  0  0  0  0  0  0  0
   -6.0513   -2.2405   -0.5832 C   0  0  0  0  0  0  0  0  0  0  0  0
    6.7144   -2.8649    0.4467 H   0  0  0  0  0  0  0  0  0  0  0  0
    6.6188   -1.2829    1.2423 H   0  0  0  0  0  0  0  0  0  0  0  0
    7.0977   -2.7792    2.2117 H   0  0  0  0  0  0  0  0  0  0  0  0
    4.4791   -1.6742    2.0353 H   0  0  0  0  0  0  0  0  0  0  0  0
    4.8511   -3.4223    2.5156 H   0  0  0  0  0  0  0  0  0  0  0  0
    4.8757   -4.0380    0.2114 H   0  0  0  0  0  0  0  0  0  0  0  0
    3.2748   -3.4109    0.6535 H   0  0  0  0  0  0  0  0  0  0  0  0
    5.4715   -1.9788   -0.9642 H   0  0  0  0  0  0  0  0  0  0  0  0
    3.8710   -2.4982   -1.4941 H   0  0  0  0  0  0  0  0  0  0  0  0
    4.4298   -0.0291   -0.1029 H   0  0  0  0  0  0  0  0  0  0  0  0
   -0.4179   -2.4941   -0.0687 H   0  0  0  0  0  0  0  0  0  0  0  0
   -0.8319    2.3285    0.8305 H   0  0  0  0  0  0  0  0  0  0  0  0
    1.8141    2.8226    1.8668 H   0  0  0  0  0  0  0  0  0  0  0  0
    3.0206    2.7684   -0.0613 H   0  0  0  0  0  0  0  0  0  0  0  0
    1.5048    2.8967   -1.1134 H   0  0  0  0  0  0  0  0  0  0  0  0
    2.5186    5.2121    0.5885 H   0  0  0  0  0  0  0  0  0  0  0  0
    3.1107    4.9079   -1.0585 H   0  0  0  0  0  0  0  0  0  0  0  0
    0.7783    4.7849   -1.8966 H   0  0  0  0  0  0  0  0  0  0  0  0
    0.1861    7.0737   -1.2565 H   0  0  0  0  0  0  0  0  0  0  0  0
   -0.9080    4.3542   -0.3742 H   0  0  0  0  0  0  0  0  0  0  0  0
   -0.6660    5.9242    0.4188 H   0  0  0  0  0  0  0  0  0  0  0  0
   -0.5265    4.0234    1.9128 H   0  0  0  0  0  0  0  0  0  0  0  0
    0.9525    5.0193    1.9852 H   0  0  0  0  0  0  0  0  0  0  0  0
   -1.7937    1.0361    2.2812 H   0  0  0  0  0  0  0  0  0  0  0  0
   -5.4669   -0.5670    1.1814 H   0  0  0  0  0  0  0  0  0  0  0  0
   -4.0442   -2.4619   -2.8049 H   0  0  0  0  0  0  0  0  0  0  0  0
   -2.9666   -3.2149   -1.6000 H   0  0  0  0  0  0  0  0  0  0  0  0
   -4.3037   -4.9058   -2.6182 H   0  0  0  0  0  0  0  0  0  0  0  0
   -4.5495   -4.7891   -0.8592 H   0  0  0  0  0  0  0  0  0  0  0  0
   -7.7152   -2.8547   -1.8173 H   0  0  0  0  0  0  0  0  0  0  0  0
   -6.2637   -2.2041   -2.6949 H   0  0  0  0  0  0  0  0  0  0  0  0
   -6.2678   -2.9202    0.2510 H   0  0  0  0  0  0  0  0  0  0  0  0
   -6.5065   -1.2385   -0.4510 H   0  0  0  0  0  0  0  0  0  0  0  0
  1  2  1  0
  2  3  1  0
  3  4  1  0
  4  5  1  0
  5  6  1  0
  6  7  2  0
  7  8  1  0
  8  9  2  0
  9 10  1  0
 10 11  1  0
 11 12  1  0
 12 13  1  0
 13 14  1  0
 14 15  1  0
 15 16  1  0
 15 17  1  0
 17 18  1  0
 10 19  2  0
  9 20  1  0
 20 21  2  0
 21 22  1  0
 22 23  2  0
 23 24  1  0
 24 25  2  0
 24 26  1  0
 26 27  1  0
 27 28  1  0
 28 29  1  0
 29 30  1  0
 30 31  1  0
 19  6  1  0
 25 20  1  0
 31 26  1  0
 18 12  1  0
  1 32  1  0
  1 33  1  0
  1 34  1  0
  2 35  1  0
  2 36  1  0
  3 37  1  0
  3 38  1  0
  4 39  1  0
  4 40  1  0
  5 41  1  0
  8 42  1  0
 11 43  1  0
 12 44  1  1
 13 45  1  0
 13 46  1  0
 14 47  1  0
 14 48  1  0
 15 49  1  6
 16 50  1  0
 17 51  1  0
 17 52  1  0
 18 53  1  0
 18 54  1  0
 21 55  1  0
 23 56  1  0
 27 57  1  0
 27 58  1  0
 28 59  1  0
 28 60  1  0
 30 61  1  0
 30 62  1  0
 31 63  1  0
 31 64  1  0
M  END
$$$$
[H]c1nc(-c2c([H])nc(N([H])C([H])([H])C([H])([H])C([H])([H])C([H])([H])[H])nc2N([H])[C@]2([H])C([H])([H])C([H])([H])[C@@]([H])(C([H])([H])N([H])[H])C([H])([H])C2([H])[H])c([H])c([H])c1[H]
     RDKit          3D

 56 58  0  0  0  0  0  0  0  0999 V2000
    6.5589    2.3931   -0.0952 C   0  0  0  0  0  0  0  0  0  0  0  0
    5.8084    3.0681    1.0345 C   0  0  0  0  0  0  0  0  0  0  0  0
    4.3322    3.0273    0.6895 C   0  0  0  0  0  0  0  0  0  0  0  0
    3.9548    1.5676    0.5599 C   0  0  0  0  0  0  0  0  0  0  0  0
    2.5509    1.4439    0.2294 N   0  0  0  0  0  0  0  0  0  0  0  0
    1.9904    0.1688    0.0619 C   0  0  0  0  0  0  0  0  0  0  0  0
    2.7392   -0.9246    0.2046 N   0  0  0  0  0  0  0  0  0  0  0  0
    2.2610   -2.1384    0.0601 C   0  0  0  0  0  0  0  0  0  0  0  0
    0.9030   -2.3222   -0.2591 C   0  0  0  0  0  0  0  0  0  0  0  0
    0.1318   -1.2157   -0.4112 C   0  0  0  0  0  0  0  0  0  0  0  0
   -1.2065   -1.1904   -0.8565 N   0  0  0  0  0  0  0  0  0  0  0  0
   -1.9312    0.0540   -0.9004 C   0  0  1  0  0  0  0  0  0  0  0  0
   -3.3493   -0.1486   -1.4391 C   0  0  0  0  0  0  0  0  0  0  0  0
   -4.0243    1.1891   -1.3350 C   0  0  0  0  0  0  0  0  0  0  0  0
   -4.3690    1.4422    0.1111 C   0  0  2  0  0  0  0  0  0  0  0  0
   -4.3690    2.9406    0.3589 C   0  0  0  0  0  0  0  0  0  0  0  0
   -5.3573    3.5543   -0.5059 N   0  0  0  0  0  0  0  0  0  0  0  0
   -3.4163    0.7185    0.9990 C   0  0  0  0  0  0  0  0  0  0  0  0
   -1.9883    0.6836    0.4820 C   0  0  0  0  0  0  0  0  0  0  0  0
    0.7085    0.0153   -0.2412 N   0  0  0  0  0  0  0  0  0  0  0  0
    0.4101   -3.6778   -0.4222 C   0  0  0  0  0  0  0  0  0  0  0  0
   -0.8098   -4.1827   -0.1088 C   0  0  0  0  0  0  0  0  0  0  0  0
   -1.1293   -5.5442   -0.2402 C   0  0  0  0  0  0  0  0  0  0  0  0
   -0.1884   -6.4342   -0.7021 C   0  0  0  0  0  0  0  0  0  0  0  0
    1.0436   -5.9006   -1.0125 C   0  0  0  0  0  0  0  0  0  0  0  0
    1.3208   -4.5980   -0.8783 N   0  0  0  0  0  0  0  0  0  0  0  0
    6.6335    1.3019    0.1162 H   0  0  0  0  0  0  0  0  0  0  0  0
    7.5367    2.8734   -0.1820 H   0  0  0  0  0  0  0  0  0  0  0  0
    5.9676    2.5177   -1.0211 H   0  0  0  0  0  0  0  0  0  0  0  0
    5.9907    2.4824    1.9422 H   0  0  0  0  0  0  0  0  0  0  0  0
    6.1526    4.1308    1.1218 H   0  0  0  0  0  0  0  0  0  0  0  0
    3.7159    3.4595    1.5127 H   0  0  0  0  0  0  0  0  0  0  0  0
    4.1197    3.5094   -0.2657 H   0  0  0  0  0  0  0  0  0  0  0  0
    4.5748    1.0755   -0.2300 H   0  0  0  0  0  0  0  0  0  0  0  0
    4.1440    1.0141    1.5045 H   0  0  0  0  0  0  0  0  0  0  0  0
    1.9651    2.2931    0.1175 H   0  0  0  0  0  0  0  0  0  0  0  0
    2.8418   -3.0404    0.1692 H   0  0  0  0  0  0  0  0  0  0  0  0
   -1.6894   -2.0168   -1.1953 H   0  0  0  0  0  0  0  0  0  0  0  0
   -1.4669    0.8113   -1.5652 H   0  0  0  0  0  0  0  0  0  0  0  0
   -3.8717   -0.8435   -0.7473 H   0  0  0  0  0  0  0  0  0  0  0  0
   -3.2998   -0.5271   -2.4749 H   0  0  0  0  0  0  0  0  0  0  0  0
   -3.3391    1.9877   -1.6761 H   0  0  0  0  0  0  0  0  0  0  0  0
   -4.9775    1.1865   -1.9289 H   0  0  0  0  0  0  0  0  0  0  0  0
   -5.3893    1.0220    0.2797 H   0  0  0  0  0  0  0  0  0  0  0  0
   -3.3832    3.3719    0.0988 H   0  0  0  0  0  0  0  0  0  0  0  0
   -4.6095    3.1629    1.4159 H   0  0  0  0  0  0  0  0  0  0  0  0
   -6.0038    2.8242   -0.8498 H   0  0  0  0  0  0  0  0  0  0  0  0
   -5.8479    4.3541   -0.0469 H   0  0  0  0  0  0  0  0  0  0  0  0
   -3.3504    1.2192    2.0062 H   0  0  0  0  0  0  0  0  0  0  0  0
   -3.7322   -0.3206    1.2193 H   0  0  0  0  0  0  0  0  0  0  0  0
   -1.4997    1.6726    0.5232 H   0  0  0  0  0  0  0  0  0  0  0  0
   -1.4412    0.0205    1.1884 H   0  0  0  0  0  0  0  0  0  0  0  0
   -1.5706   -3.5496    0.2958 H   0  0  0  0  0  0  0  0  0  0  0  0
   -2.1084   -5.8950    0.0190 H   0  0  0  0  0  0  0  0  0  0  0  0
   -0.4277   -7.4831   -0.8057 H   0  0  0  0  0  0  0  0  0  0  0  0
    1.7911   -6.6037   -1.3777 H   0  0  0  0  0  0  0  0  0  0  0  0
  1  2  1  0
  2  3  1  0
  3  4  1  0
  4  5  1  0
  5  6  1  0
  6  7  2  0
  7  8  1  0
  8  9  2  0
  9 10  1  0
 10 11  1  0
 11 12  1  0
 12 13  1  0
 13 14  1  0
 14 15  1  0
 15 16  1  0
 16 17  1  0
 15 18  1  0
 18 19  1  0
 10 20  2  0
  9 21  1  0
 21 22  2  0
 22 23  1  0
 23 24  2  0
 24 25  1  0
 25 26  2  0
 20  6  1  0
 26 21  1  0
 19 12  1  0
  1 27  1  0
  1 28  1  0
  1 29  1  0
  2 30  1  0
  2 31  1  0
  3 32  1  0
  3 33  1  0
  4 34  1  0
  4 35  1  0
  5 36  1  0
  8 37  1  0
 11 38  1  0
 12 39  1  6
 13 40  1  0
 13 41  1  0
 14 42  1  0
 14 43  1  0
 15 44  1  6
 16 45  1  0
 16 46  1  0
 17 47  1  0
 17 48  1  0
 18 49  1  0
 18 50  1  0
 19 51  1  0
 19 52  1  0
 22 53  1  0
 23 54  1  0
 24 55  1  0
 25 56  1  0
M  END
$$$$
[H]OC([H])([H])C([H])([H])C([H])([H])C([H])([H])N([H])C(=O)c1c([H])nc(N([H])C([H])([H])C([H])([H])C([H])([H])C([H])([H])[H])nc1N([H])C1([H])C([H])([H])C([H])([H])C([H])(O[H])C([H])([H])C1([H])[H]
     RDKit          3D

 60 61  0  0  0  0  0  0  0  0999 V2000
    7.8092   -1.6562   -0.4620 C   0  0  0  0  0  0  0  0  0  0  0  0
    6.3892   -1.2381   -0.8591 C   0  0  0  0  0  0  0  0  0  0  0  0
    5.6747   -0.5000    0.2139 C   0  0  0  0  0  0  0  0  0  0  0  0
    4.2568   -0.1083   -0.1588 C   0  0  0  0  0  0  0  0  0  0  0  0
    3.4738   -1.3392   -0.3730 N   0  0  0  0  0  0  0  0  0  0  0  0
    2.1203   -1.3261   -0.5956 C   0  0  0  0  0  0  0  0  0  0  0  0
    1.3844   -2.4269   -0.7241 N   0  0  0  0  0  0  0  0  0  0  0  0
    0.2181   -2.6637   -0.8818 C   0  0  0  0  0  0  0  0  0  0  0  0
   -0.8856   -1.3196   -0.9768 C   0  0  0  0  0  0  0  0  0  0  0  0
   -1.8938   -2.2543   -1.1264 C   0  0  0  0  0  0  0  0  0  0  0  0
   -2.0599   -3.1767   -1.9277 O   0  0  0  0  0  0  0  0  0  0  0  0
   -2.9648   -2.1493   -0.1204 N   0  0  0  0  0  0  0  0  0  0  0  0
   -4.0137   -3.1441   -0.1984 C   0  0  0  0  0  0  0  0  0  0  0  0
   -4.9009   -3.0539    1.0237 C   0  0  0  0  0  0  0  0  0  0  0  0
   -5.6266   -1.7878    1.2417 C   0  0  0  0  0  0  0  0  0  0  0  0
   -6.3151   -1.9037    2.6060 C   0  0  0  0  0  0  0  0  0  0  0  0
   -7.0304   -0.7745    2.9255 O   0  0  0  0  0  0  0  0  0  0  0  0
    0.0349   -0.4663   -0.8402 C   0  0  0  0  0  0  0  0  0  0  0  0
   -0.8038    0.8375   -1.0178 N   0  0  0  0  0  0  0  0  0  0  0  0
   -0.1547    2.0757   -0.9287 C   0  0  0  0  0  0  0  0  0  0  0  0
    0.3766    2.3809    0.4552 C   0  0  0  0  0  0  0  0  0  0  0  0
    0.0154    3.7175    0.9705 C   0  0  0  0  0  0  0  0  0  0  0  0
   -0.0210    4.8401   -0.0239 C   0  0  0  0  0  0  0  0  0  0  0  0
    1.1789    5.5544   -0.0695 O   0  0  0  0  0  0  0  0  0  0  0  0
   -0.4197    4.4602   -1.3988 C   0  0  0  0  0  0  0  0  0  0  0  0
   -1.1331    3.1753   -1.3995 C   0  0  0  0  0  0  0  0  0  0  0  0
    1.2999   -0.2231   -0.6748 N   0  0  0  0  0  0  0  0  0  0  0  0
    8.4927   -0.8049   -0.5004 H   0  0  0  0  0  0  0  0  0  0  0  0
    7.7245   -2.0687    0.5586 H   0  0  0  0  0  0  0  0  0  0  0  0
    8.1284   -2.4686   -1.1687 H   0  0  0  0  0  0  0  0  0  0  0  0
    6.4993   -0.6300   -1.7882 H   0  0  0  0  0  0  0  0  0  0  0  0
    5.8453   -2.1920   -1.0758 H   0  0  0  0  0  0  0  0  0  0  0  0
    5.5646   -1.1496    1.1559 H   0  0  0  0  0  0  0  0  0  0  0  0
    6.2706    0.3615    0.5429 H   0  0  0  0  0  0  0  0  0  0  0  0
    4.2426    0.5430   -1.0543 H   0  0  0  0  0  0  0  0  0  0  0  0
    3.7477    0.3966    0.6763 H   0  0  0  0  0  0  0  0  0  0  0  0
    4.0142   -2.2315   -0.3376 H   0  0  0  0  0  0  0  0  0  0  0  0
   -0.3189   -3.5330   -0.9635 H   0  0  0  0  0  0  0  0  0  0  0  0
   -2.9630   -1.4009    0.6012 H   0  0  0  0  0  0  0  0  0  0  0  0
   -4.6564   -3.0126   -1.0904 H   0  0  0  0  0  0  0  0  0  0  0  0
   -3.5015   -4.1536   -0.2605 H   0  0  0  0  0  0  0  0  0  0  0  0
   -5.6491   -3.9121    1.0157 H   0  0  0  0  0  0  0  0  0  0  0  0
   -4.2588   -3.3142    1.9202 H   0  0  0  0  0  0  0  0  0  0  0  0
   -6.4456   -1.6718    0.4610 H   0  0  0  0  0  0  0  0  0  0  0  0
   -5.0096   -0.9016    1.1751 H   0  0  0  0  0  0  0  0  0  0  0  0
   -5.5152   -2.0040    3.3968 H   0  0  0  0  0  0  0  0  0  0  0  0
   -6.9244   -2.8054    2.7096 H   0  0  0  0  0  0  0  0  0  0  0  0
   -7.3327   -0.7597    3.8802 H   0  0  0  0  0  0  0  0  0  0  0  0
   -1.8016    0.7619   -1.1903 H   0  0  0  0  0  0  0  0  0  0  0  0
    0.7036    2.1462   -1.6318 H   0  0  0  0  0  0  0  0  0  0  0  0
   -0.1610    1.6257    1.1093 H   0  0  0  0  0  0  0  0  0  0  0  0
    1.4396    2.1604    0.6056 H   0  0  0  0  0  0  0  0  0  0  0  0
   -0.9140    3.6913    1.6109 H   0  0  0  0  0  0  0  0  0  0  0  0
    0.8148    4.0138    1.7291 H   0  0  0  0  0  0  0  0  0  0  0  0
   -0.8193    5.5503    0.3640 H   0  0  0  0  0  0  0  0  0  0  0  0
    0.9514    6.5191    0.0836 H   0  0  0  0  0  0  0  0  0  0  0  0
    0.4272    4.4179   -2.1174 H   0  0  0  0  0  0  0  0  0  0  0  0
   -1.1120    5.2517   -1.8123 H   0  0  0  0  0  0  0  0  0  0  0  0
   -1.4275    2.9084   -2.4670 H   0  0  0  0  0  0  0  0  0  0  0  0
   -2.0649    3.1369   -0.8171 H   0  0  0  0  0  0  0  0  0  0  0  0
  1  2  1  0
  2  3  1  0
  3  4  1  0
  4  5  1  0
  5  6  1  0
  6  7  2  0
  7  8  1  0
  8  9  2  0
  9 10  1  0
 10 11  2  0
 10 12  1  0
 12 13  1  0
 13 14  1  0
 14 15  1  0
 15 16  1  0
 16 17  1  0
  9 18  1  0
 18 19  1  0
 19 20  1  0
 20 21  1  0
 21 22  1  0
 22 23  1  0
 23 24  1  0
 23 25  1  0
 25 26  1  0
 18 27  2  0
 27  6  1  0
 26 20  1  0
  1 28  1  0
  1 29  1  0
  1 30  1  0
  2 31  1  0
  2 32  1  0
  3 33  1  0
  3 34  1  0
  4 35  1  0
  4 36  1  0
  5 37  1  0
  8 38  1  0
 12 39  1  0
 13 40  1  0
 13 41  1  0
 14 42  1  0
 14 43  1  0
 15 44  1  0
 15 45  1  0
 16 46  1  0
 16 47  1  0
 17 48  1  0
 19 49  1  0
 20 50  1  0
 21 51  1  0
 21 52  1  0
 22 53  1  0
 22 54  1  0
 23 55  1  0
 24 56  1  0
 25 57  1  0
 25 58  1  0
 26 59  1  0
 26 60  1  0
M  END
$$$$
[H]c1nc(N([H])[H])c2c(-c3c([H])c([H])c(N([H])C(=O)c4c([H])n(C([H])(C([H])([H])[H])C([H])([H])[H])c(=O)n(-c5c([H])c([H])c([H])c(F)c5[H])c4=O)c([H])c3[H])c([H])c(-c3c(C([H])([H])[H])nn(C([H])([H])[H])c3C([H])([H])[H])n2n1
     RDKit          3D

 75 80  0  0  0  0  0  0  0  0999 V2000
   -7.3120   -3.5991    0.3711 C   0  0  0  0  0  0  0  0  0  0  0  0
   -7.7483   -2.2309   -0.1014 C   0  0  0  0  0  0  0  0  0  0  0  0
   -9.0394   -1.8853    0.5730 C   0  0  0  0  0  0  0  0  0  0  0  0
   -6.7160   -1.2645    0.0668 N   0  0  0  0  0  0  0  0  0  0  0  0
   -5.4442   -1.6961    0.2718 C   0  0  0  0  0  0  0  0  0  0  0  0
   -4.4100   -0.7969    0.4182 C   0  0  0  0  0  0  0  0  0  0  0  0
   -2.9876   -1.2020    0.5587 C   0  0  0  0  0  0  0  0  0  0  0  0
   -2.7894   -2.1735    1.2957 O   0  0  0  0  0  0  0  0  0  0  0  0
   -1.9842   -0.5081   -0.1108 N   0  0  0  0  0  0  0  0  0  0  0  0
   -0.5884   -0.7164   -0.0665 C   0  0  0  0  0  0  0  0  0  0  0  0
    0.0907   -1.4089    0.8888 C   0  0  0  0  0  0  0  0  0  0  0  0
    1.4695   -1.5198    0.8579 C   0  0  0  0  0  0  0  0  0  0  0  0
    2.2268   -0.9437   -0.1316 C   0  0  0  0  0  0  0  0  0  0  0  0
    1.5368   -0.2339   -1.1201 C   0  0  0  0  0  0  0  0  0  0  0  0
    0.1777   -0.1293   -1.0795 C   0  0  0  0  0  0  0  0  0  0  0  0
    3.6897   -0.9764   -0.1933 C   0  0  0  0  0  0  0  0  0  0  0  0
    4.4272    0.2323   -0.1900 C   0  0  0  0  0  0  0  0  0  0  0  0
    5.7777   -0.0321   -0.1902 C   0  0  0  0  0  0  0  0  0  0  0  0
    6.8413    0.9910   -0.0761 C   0  0  0  0  0  0  0  0  0  0  0  0
    6.5961    2.3344    0.1480 C   0  0  0  0  0  0  0  0  0  0  0  0
    5.3437    3.0775    0.4319 C   0  0  0  0  0  0  0  0  0  0  0  0
    7.7924    2.9726    0.1056 N   0  0  0  0  0  0  0  0  0  0  0  0
    8.7584    2.1504   -0.1222 N   0  0  0  0  0  0  0  0  0  0  0  0
   10.1487    2.5368   -0.2111 C   0  0  0  0  0  0  0  0  0  0  0  0
    8.1929    0.9092   -0.2413 C   0  0  0  0  0  0  0  0  0  0  0  0
    9.0484   -0.2391   -0.5647 C   0  0  0  0  0  0  0  0  0  0  0  0
    5.8884   -1.3690   -0.1960 N   0  0  0  0  0  0  0  0  0  0  0  0
    6.8593   -2.2453   -0.1869 N   0  0  0  0  0  0  0  0  0  0  0  0
    6.7989   -3.5643   -0.1838 C   0  0  0  0  0  0  0  0  0  0  0  0
    5.5781   -4.1339   -0.1923 N   0  0  0  0  0  0  0  0  0  0  0  0
    4.5104   -3.3131   -0.2010 C   0  0  0  0  0  0  0  0  0  0  0  0
    3.1911   -3.8801   -0.2590 N   0  0  0  0  0  0  0  0  0  0  0  0
    4.6262   -1.9395   -0.1998 C   0  0  0  0  0  0  0  0  0  0  0  0
   -4.6531    0.5607    0.3620 C   0  0  0  0  0  0  0  0  0  0  0  0
   -3.7912    1.4589    0.4880 O   0  0  0  0  0  0  0  0  0  0  0  0
   -5.9274    0.9536    0.1584 N   0  0  0  0  0  0  0  0  0  0  0  0
   -6.1732    2.3488    0.0924 C   0  0  0  0  0  0  0  0  0  0  0  0
   -6.6622    2.8704   -1.0821 C   0  0  0  0  0  0  0  0  0  0  0  0
   -6.9078    4.2183   -1.2287 C   0  0  0  0  0  0  0  0  0  0  0  0
   -6.6657    5.0814   -0.1914 C   0  0  0  0  0  0  0  0  0  0  0  0
   -6.1752    4.5784    0.9957 C   0  0  0  0  0  0  0  0  0  0  0  0
   -5.9379    5.4330    2.0144 F   0  0  0  0  0  0  0  0  0  0  0  0
   -5.9312    3.2073    1.1307 C   0  0  0  0  0  0  0  0  0  0  0  0
   -6.9052    0.0671    0.0179 C   0  0  0  0  0  0  0  0  0  0  0  0
   -8.0708    0.4705   -0.1692 O   0  0  0  0  0  0  0  0  0  0  0  0
   -6.6047   -4.0930   -0.3288 H   0  0  0  0  0  0  0  0  0  0  0  0
   -8.2442   -4.2387    0.3058 H   0  0  0  0  0  0  0  0  0  0  0  0
   -6.9934   -3.6225    1.4110 H   0  0  0  0  0  0  0  0  0  0  0  0
   -8.0002   -2.3717   -1.1951 H   0  0  0  0  0  0  0  0  0  0  0  0
   -9.5118   -2.8259    0.9145 H   0  0  0  0  0  0  0  0  0  0  0  0
   -8.9437   -1.2431    1.4647 H   0  0  0  0  0  0  0  0  0  0  0  0
   -9.7862   -1.4542   -0.1608 H   0  0  0  0  0  0  0  0  0  0  0  0
   -5.1964   -2.7450    0.3285 H   0  0  0  0  0  0  0  0  0  0  0  0
   -2.3275    0.2737   -0.7687 H   0  0  0  0  0  0  0  0  0  0  0  0
   -0.4403   -1.8821    1.6929 H   0  0  0  0  0  0  0  0  0  0  0  0
    1.9494   -2.0717    1.6677 H   0  0  0  0  0  0  0  0  0  0  0  0
    2.1120    0.2229   -1.9124 H   0  0  0  0  0  0  0  0  0  0  0  0
   -0.2945    0.4345   -1.8774 H   0  0  0  0  0  0  0  0  0  0  0  0
    3.9362    1.1843   -0.2167 H   0  0  0  0  0  0  0  0  0  0  0  0
    4.7666    2.6212    1.2659 H   0  0  0  0  0  0  0  0  0  0  0  0
    4.7951    3.2387   -0.5016 H   0  0  0  0  0  0  0  0  0  0  0  0
    5.6447    4.1203    0.8006 H   0  0  0  0  0  0  0  0  0  0  0  0
   10.2083    3.6304   -0.3349 H   0  0  0  0  0  0  0  0  0  0  0  0
   10.7068    2.2650    0.7168 H   0  0  0  0  0  0  0  0  0  0  0  0
   10.6639    2.0783   -1.0762 H   0  0  0  0  0  0  0  0  0  0  0  0
   10.0994    0.1471   -0.8468 H   0  0  0  0  0  0  0  0  0  0  0  0
    9.2698   -0.8749    0.2936 H   0  0  0  0  0  0  0  0  0  0  0  0
    8.7650   -0.7545   -1.5128 H   0  0  0  0  0  0  0  0  0  0  0  0
    7.7210   -4.1686   -0.1759 H   0  0  0  0  0  0  0  0  0  0  0  0
    2.8347   -4.3334    0.5984 H   0  0  0  0  0  0  0  0  0  0  0  0
    2.6596   -3.8094   -1.1493 H   0  0  0  0  0  0  0  0  0  0  0  0
   -6.8557    2.1969   -1.9027 H   0  0  0  0  0  0  0  0  0  0  0  0
   -7.2960    4.6253   -2.1650 H   0  0  0  0  0  0  0  0  0  0  0  0
   -6.8392    6.1624   -0.2479 H   0  0  0  0  0  0  0  0  0  0  0  0
   -5.5487    2.8363    2.0675 H   0  0  0  0  0  0  0  0  0  0  0  0
  1  2  1  0
  2  3  1  0
  2  4  1  0
  4  5  1  0
  5  6  2  0
  6  7  1  0
  7  8  2  0
  7  9  1  0
  9 10  1  0
 10 11  2  0
 11 12  1  0
 12 13  2  0
 13 14  1  0
 14 15  2  0
 13 16  1  0
 16 17  1  0
 17 18  2  0
 18 19  1  0
 19 20  1  0
 20 21  1  0
 20 22  2  0
 22 23  1  0
 23 24  1  0
 23 25  1  0
 25 26  1  0
 18 27  1  0
 27 28  1  0
 28 29  2  0
 29 30  1  0
 30 31  2  0
 31 32  1  0
 31 33  1  0
  6 34  1  0
 34 35  2  0
 34 36  1  0
 36 37  1  0
 37 38  2  0
 38 39  1  0
 39 40  2  0
 40 41  1  0
 41 42  1  0
 41 43  2  0
 36 44  1  0
 44 45  2  0
 44  4  1  0
 15 10  1  0
 33 16  2  0
 43 37  1  0
 25 19  2  0
 33 27  1  0
  1 46  1  0
  1 47  1  0
  1 48  1  0
  2 49  1  0
  3 50  1  0
  3 51  1  0
  3 52  1  0
  5 53  1  0
  9 54  1  0
 11 55  1  0
 12 56  1  0
 14 57  1  0
 15 58  1  0
 17 59  1  0
 21 60  1  0
 21 61  1  0
 21 62  1  0
 24 63  1  0
 24 64  1  0
 24 65  1  0
 26 66  1  0
 26 67  1  0
 26 68  1  0
 29 69  1  0
 32 70  1  0
 32 71  1  0
 38 72  1  0
 39 73  1  0
 40 74  1  0
 43 75  1  0
M  END
$$$$
[H]O[C@]1([H])C([H])([H])C([H])([H])[C@@]([H])(N([H])c2nc(N([H])C([H])([H])C([H])([H])C([H])([H])C([H])([H])[H])nc([H])c2C(=O)N([H])C([H])([H])c2c([H])c([H])c(-n3c([H])c([H])c([H])c3[H])c([H])c2[H])C([H])([H])C1([H])[H]
     RDKit          3D

 68 71  0  0  0  0  0  0  0  0999 V2000
   -7.1506    4.9578    1.7496 C   0  0  0  0  0  0  0  0  0  0  0  0
   -5.8445    4.8336    0.9736 C   0  0  0  0  0  0  0  0  0  0  0  0
   -5.4253    3.3762    1.0088 C   0  0  0  0  0  0  0  0  0  0  0  0
   -4.1320    3.1724    0.2561 C   0  0  0  0  0  0  0  0  0  0  0  0
   -3.7860    1.7754    0.3243 N   0  0  0  0  0  0  0  0  0  0  0  0
   -2.5907    1.3260   -0.3178 C   0  0  0  0  0  0  0  0  0  0  0  0
   -1.8297    2.2294   -0.9662 N   0  0  0  0  0  0  0  0  0  0  0  0
   -0.7129    1.8004   -1.5617 C   0  0  0  0  0  0  0  0  0  0  0  0
   -0.3337    0.4397   -1.5173 C   0  0  0  0  0  0  0  0  0  0  0  0
    0.9009    0.0720   -2.1772 C   0  0  0  0  0  0  0  0  0  0  0  0
    1.3604   -1.0979   -2.1897 O   0  0  0  0  0  0  0  0  0  0  0  0
    1.6782    1.0246   -2.8600 N   0  0  0  0  0  0  0  0  0  0  0  0
    2.9382    0.6293   -3.5263 C   0  0  0  0  0  0  0  0  0  0  0  0
    3.9514    0.4762   -2.4838 C   0  0  0  0  0  0  0  0  0  0  0  0
    5.1520   -0.1353   -2.7598 C   0  0  0  0  0  0  0  0  0  0  0  0
    6.1257   -0.2771   -1.7619 C   0  0  0  0  0  0  0  0  0  0  0  0
    5.9158    0.1874   -0.4801 C   0  0  0  0  0  0  0  0  0  0  0  0
    4.7048    0.7963   -0.2294 C   0  0  0  0  0  0  0  0  0  0  0  0
    3.7345    0.9404   -1.2145 C   0  0  0  0  0  0  0  0  0  0  0  0
    6.8849    0.0592    0.5623 N   0  0  0  0  0  0  0  0  0  0  0  0
    6.8507   -0.8072    1.6062 C   0  0  0  0  0  0  0  0  0  0  0  0
    7.9715   -0.6031    2.3795 C   0  0  0  0  0  0  0  0  0  0  0  0
    8.7124    0.4100    1.8010 C   0  0  0  0  0  0  0  0  0  0  0  0
    8.0065    0.7929    0.6794 C   0  0  0  0  0  0  0  0  0  0  0  0
   -1.1308   -0.4578   -0.8487 C   0  0  0  0  0  0  0  0  0  0  0  0
   -0.8444   -1.8277   -0.7749 N   0  0  0  0  0  0  0  0  0  0  0  0
   -1.7728   -2.6620   -0.0036 C   0  0  1  0  0  0  0  0  0  0  0  0
   -1.4111   -4.1467   -0.1557 C   0  0  0  0  0  0  0  0  0  0  0  0
   -1.7567   -4.9245    1.0880 C   0  0  0  0  0  0  0  0  0  0  0  0
   -3.0870   -4.3800    1.6183 C   0  0  2  0  0  0  0  0  0  0  0  0
   -3.9825   -4.4363    0.5512 O   0  0  0  0  0  0  0  0  0  0  0  0
   -2.9462   -2.9621    2.1238 C   0  0  0  0  0  0  0  0  0  0  0  0
   -1.7014   -2.3849    1.4699 C   0  0  0  0  0  0  0  0  0  0  0  0
   -2.2609    0.0430   -0.2594 N   0  0  0  0  0  0  0  0  0  0  0  0
   -7.9504    5.1919    1.0101 H   0  0  0  0  0  0  0  0  0  0  0  0
   -7.4286    4.0002    2.2268 H   0  0  0  0  0  0  0  0  0  0  0  0
   -7.0431    5.7428    2.5272 H   0  0  0  0  0  0  0  0  0  0  0  0
   -5.9804    5.1053   -0.0941 H   0  0  0  0  0  0  0  0  0  0  0  0
   -5.0506    5.4487    1.4239 H   0  0  0  0  0  0  0  0  0  0  0  0
   -6.1815    2.7346    0.5148 H   0  0  0  0  0  0  0  0  0  0  0  0
   -5.2581    3.0266    2.0527 H   0  0  0  0  0  0  0  0  0  0  0  0
   -3.3207    3.7778    0.6965 H   0  0  0  0  0  0  0  0  0  0  0  0
   -4.2524    3.4357   -0.8157 H   0  0  0  0  0  0  0  0  0  0  0  0
   -4.3654    1.0692    0.8202 H   0  0  0  0  0  0  0  0  0  0  0  0
   -0.0818    2.4904   -2.0869 H   0  0  0  0  0  0  0  0  0  0  0  0
    1.4574    2.0258   -2.9550 H   0  0  0  0  0  0  0  0  0  0  0  0
    2.7874   -0.3424   -4.0528 H   0  0  0  0  0  0  0  0  0  0  0  0
    3.2671    1.4031   -4.2425 H   0  0  0  0  0  0  0  0  0  0  0  0
    5.4009   -0.5330   -3.7516 H   0  0  0  0  0  0  0  0  0  0  0  0
    7.0760   -0.7606   -1.9758 H   0  0  0  0  0  0  0  0  0  0  0  0
    4.5333    1.1674    0.7890 H   0  0  0  0  0  0  0  0  0  0  0  0
    2.8049    1.4385   -0.9215 H   0  0  0  0  0  0  0  0  0  0  0  0
    6.0573   -1.5020    1.7408 H   0  0  0  0  0  0  0  0  0  0  0  0
    8.2512   -1.1287    3.2876 H   0  0  0  0  0  0  0  0  0  0  0  0
    9.6679    0.8192    2.1680 H   0  0  0  0  0  0  0  0  0  0  0  0
    8.3436    1.5763    0.0159 H   0  0  0  0  0  0  0  0  0  0  0  0
   -0.0610   -2.3361   -1.1977 H   0  0  0  0  0  0  0  0  0  0  0  0
   -2.7854   -2.4482   -0.3771 H   0  0  0  0  0  0  0  0  0  0  0  0
   -0.3527   -4.2393   -0.4570 H   0  0  0  0  0  0  0  0  0  0  0  0
   -2.0175   -4.5592   -1.0119 H   0  0  0  0  0  0  0  0  0  0  0  0
   -1.9925   -5.9701    0.7518 H   0  0  0  0  0  0  0  0  0  0  0  0
   -0.9727   -4.9367    1.8447 H   0  0  0  0  0  0  0  0  0  0  0  0
   -3.4172   -5.0118    2.4756 H   0  0  0  0  0  0  0  0  0  0  0  0
   -4.2199   -5.3980    0.4427 H   0  0  0  0  0  0  0  0  0  0  0  0
   -2.8647   -2.9045    3.2169 H   0  0  0  0  0  0  0  0  0  0  0  0
   -3.8263   -2.3709    1.7963 H   0  0  0  0  0  0  0  0  0  0  0  0
   -0.8039   -2.9063    1.9123 H   0  0  0  0  0  0  0  0  0  0  0  0
   -1.6090   -1.3451    1.7618 H   0  0  0  0  0  0  0  0  0  0  0  0
  1  2  1  0
  2  3  1  0
  3  4  1  0
  4  5  1  0
  5  6  1  0
  6  7  2  0
  7  8  1  0
  8  9  2  0
  9 10  1  0
 10 11  2  0
 10 12  1  0
 12 13  1  0
 13 14  1  0
 14 15  2  0
 15 16  1  0
 16 17  2  0
 17 18  1  0
 18 19  2  0
 17 20  1  0
 20 21  1  0
 21 22  2  0
 22 23  1  0
 23 24  2  0
  9 25  1  0
 25 26  1  0
 26 27  1  0
 27 28  1  0
 28 29  1  0
 29 30  1  0
 30 31  1  0
 30 32  1  0
 32 33  1  0
 25 34  2  0
 34  6  1  0
 19 14  1  0
 24 20  1  0
 33 27  1  0
  1 35  1  0
  1 36  1  0
  1 37  1  0
  2 38  1  0
  2 39  1  0
  3 40  1  0
  3 41  1  0
  4 42  1  0
  4 43  1  0
  5 44  1  0
  8 45  1  0
 12 46  1  0
 13 47  1  0
 13 48  1  0
 15 49  1  0
 16 50  1  0
 18 51  1  0
 19 52  1  0
 21 53  1  0
 22 54  1  0
 23 55  1  0
 24 56  1  0
 26 57  1  0
 27 58  1  6
 28 59  1  0
 28 60  1  0
 29 61  1  0
 29 62  1  0
 30 63  1  1
 31 64  1  0
 32 65  1  0
 32 66  1  0
 33 67  1  0
 33 68  1  0
M  END
$$$$
[H]O[C@]1([H])C([H])([H])C([H])([H])[C@@]([H])(N([H])c2nc(N([H])C([H])([H])C([H])([H])C([H])([H])C([H])([H])[H])nc([H])c2-c2nc([H])c(C([H])([H])N([H])C3([H])C([H])([H])C([H])([H])C([H])([H])C([H])([H])C3([H])[H])c([H])c2[H])C([H])([H])C1([H])[H]
     RDKit          3D

 73 76  0  0  0  0  0  0  0  0999 V2000
   -6.8466    2.9904    2.2562 C   0  0  0  0  0  0  0  0  0  0  0  0
   -6.5399    4.4077    1.9024 C   0  0  0  0  0  0  0  0  0  0  0  0
   -6.0102    4.5661    0.5233 C   0  0  0  0  0  0  0  0  0  0  0  0
   -4.7328    3.8868    0.2530 C   0  0  0  0  0  0  0  0  0  0  0  0
   -4.6551    2.4754    0.2917 N   0  0  0  0  0  0  0  0  0  0  0  0
   -3.3413    1.8860    0.2195 C   0  0  0  0  0  0  0  0  0  0  0  0
   -2.2416    2.6397    0.1214 N   0  0  0  0  0  0  0  0  0  0  0  0
   -0.9926    2.1592    0.0517 C   0  0  0  0  0  0  0  0  0  0  0  0
   -0.8397    0.7567    0.0845 C   0  0  0  0  0  0  0  0  0  0  0  0
   -1.9333   -0.0412    0.1827 C   0  0  0  0  0  0  0  0  0  0  0  0
   -1.8810   -1.4416    0.1873 N   0  0  0  0  0  0  0  0  0  0  0  0
   -3.1109   -2.2375    0.3110 C   0  0  1  0  0  0  0  0  0  0  0  0
   -4.0656   -2.0365   -0.8044 C   0  0  0  0  0  0  0  0  0  0  0  0
   -4.2655   -3.2537   -1.6714 C   0  0  0  0  0  0  0  0  0  0  0  0
   -4.3559   -4.5449   -0.9390 C   0  0  2  0  0  0  0  0  0  0  0  0
   -5.5882   -5.2042   -1.1529 O   0  0  0  0  0  0  0  0  0  0  0  0
   -4.0076   -4.4773    0.5200 C   0  0  0  0  0  0  0  0  0  0  0  0
   -2.7477   -3.6381    0.6363 C   0  0  0  0  0  0  0  0  0  0  0  0
   -3.1686    0.5737    0.2482 N   0  0  0  0  0  0  0  0  0  0  0  0
    0.5220    0.2564   -0.0214 C   0  0  0  0  0  0  0  0  0  0  0  0
    1.5511    1.0529   -0.5536 C   0  0  0  0  0  0  0  0  0  0  0  0
    2.8450    0.6021   -0.6978 C   0  0  0  0  0  0  0  0  0  0  0  0
    3.1774   -0.6670   -0.3191 C   0  0  0  0  0  0  0  0  0  0  0  0
    4.5810   -1.1959   -0.4646 C   0  0  0  0  0  0  0  0  0  0  0  0
    5.4175   -0.1745   -1.0228 N   0  0  0  0  0  0  0  0  0  0  0  0
    6.7738   -0.5706   -1.2167 C   0  0  0  0  0  0  0  0  0  0  0  0
    7.5643    0.5958   -1.7658 C   0  0  0  0  0  0  0  0  0  0  0  0
    7.9410    1.6027   -0.7158 C   0  0  0  0  0  0  0  0  0  0  0  0
    8.7036    0.9599    0.4348 C   0  0  0  0  0  0  0  0  0  0  0  0
    7.7486   -0.0481    1.0494 C   0  0  0  0  0  0  0  0  0  0  0  0
    7.4667   -1.0887   -0.0021 C   0  0  0  0  0  0  0  0  0  0  0  0
    2.1732   -1.4473    0.2005 C   0  0  0  0  0  0  0  0  0  0  0  0
    0.9341   -0.9708    0.3229 N   0  0  0  0  0  0  0  0  0  0  0  0
   -5.9172    2.4703    2.5223 H   0  0  0  0  0  0  0  0  0  0  0  0
   -7.5468    2.9871    3.1638 H   0  0  0  0  0  0  0  0  0  0  0  0
   -7.3578    2.5074    1.4189 H   0  0  0  0  0  0  0  0  0  0  0  0
   -7.4233    5.0780    2.0962 H   0  0  0  0  0  0  0  0  0  0  0  0
   -5.7130    4.7490    2.6092 H   0  0  0  0  0  0  0  0  0  0  0  0
   -5.8703    5.6838    0.3346 H   0  0  0  0  0  0  0  0  0  0  0  0
   -6.8064    4.3044   -0.2290 H   0  0  0  0  0  0  0  0  0  0  0  0
   -3.9320    4.2504    0.9914 H   0  0  0  0  0  0  0  0  0  0  0  0
   -4.3021    4.2412   -0.7462 H   0  0  0  0  0  0  0  0  0  0  0  0
   -5.4481    1.8394    0.3411 H   0  0  0  0  0  0  0  0  0  0  0  0
   -0.1516    2.8272   -0.0098 H   0  0  0  0  0  0  0  0  0  0  0  0
   -1.0359   -1.9945    0.0951 H   0  0  0  0  0  0  0  0  0  0  0  0
   -3.5926   -1.8094    1.2428 H   0  0  0  0  0  0  0  0  0  0  0  0
   -3.7621   -1.2164   -1.5213 H   0  0  0  0  0  0  0  0  0  0  0  0
   -5.0823   -1.7287   -0.4437 H   0  0  0  0  0  0  0  0  0  0  0  0
   -3.4682   -3.2583   -2.4672 H   0  0  0  0  0  0  0  0  0  0  0  0
   -5.2177   -3.1126   -2.2254 H   0  0  0  0  0  0  0  0  0  0  0  0
   -3.6000   -5.2430   -1.4067 H   0  0  0  0  0  0  0  0  0  0  0  0
   -6.1537   -4.7161   -1.7816 H   0  0  0  0  0  0  0  0  0  0  0  0
   -3.7514   -5.5007    0.8714 H   0  0  0  0  0  0  0  0  0  0  0  0
   -4.8390   -4.0729    1.1394 H   0  0  0  0  0  0  0  0  0  0  0  0
   -2.3224   -3.6823    1.6597 H   0  0  0  0  0  0  0  0  0  0  0  0
   -2.0271   -4.0113   -0.1154 H   0  0  0  0  0  0  0  0  0  0  0  0
    1.2801    2.0588   -0.8710 H   0  0  0  0  0  0  0  0  0  0  0  0
    3.6134    1.2548   -1.1153 H   0  0  0  0  0  0  0  0  0  0  0  0
    4.5147   -2.1182   -1.0397 H   0  0  0  0  0  0  0  0  0  0  0  0
    4.9313   -1.3606    0.5871 H   0  0  0  0  0  0  0  0  0  0  0  0
    5.4038    0.6353   -0.3611 H   0  0  0  0  0  0  0  0  0  0  0  0
    6.8428   -1.3682   -1.9925 H   0  0  0  0  0  0  0  0  0  0  0  0
    8.5024    0.2303   -2.2565 H   0  0  0  0  0  0  0  0  0  0  0  0
    7.0060    1.1376   -2.5560 H   0  0  0  0  0  0  0  0  0  0  0  0
    7.0342    2.0947   -0.2986 H   0  0  0  0  0  0  0  0  0  0  0  0
    8.5972    2.3465   -1.1925 H   0  0  0  0  0  0  0  0  0  0  0  0
    9.5632    0.3971    0.0466 H   0  0  0  0  0  0  0  0  0  0  0  0
    8.9594    1.7656    1.1380 H   0  0  0  0  0  0  0  0  0  0  0  0
    6.8679    0.4728    1.4210 H   0  0  0  0  0  0  0  0  0  0  0  0
    8.2389   -0.5989    1.9011 H   0  0  0  0  0  0  0  0  0  0  0  0
    6.9771   -1.9792    0.4425 H   0  0  0  0  0  0  0  0  0  0  0  0
    8.4740   -1.4667   -0.3472 H   0  0  0  0  0  0  0  0  0  0  0  0
    2.4391   -2.4679    0.5050 H   0  0  0  0  0  0  0  0  0  0  0  0
  1  2  1  0
  2  3  1  0
  3  4  1  0
  4  5  1  0
  5  6  1  0
  6  7  2  0
  7  8  1  0
  8  9  2  0
  9 10  1  0
 10 11  1  0
 11 12  1  0
 12 13  1  0
 13 14  1  0
 14 15  1  0
 15 16  1  0
 15 17  1  0
 17 18  1  0
 10 19  2  0
  9 20  1  0
 20 21  2  0
 21 22  1  0
 22 23  2  0
 23 24  1  0
 24 25  1  0
 25 26  1  0
 26 27  1  0
 27 28  1  0
 28 29  1  0
 29 30  1  0
 30 31  1  0
 23 32  1  0
 32 33  2  0
 19  6  1  0
 33 20  1  0
 18 12  1  0
 31 26  1  0
  1 34  1  0
  1 35  1  0
  1 36  1  0
  2 37  1  0
  2 38  1  0
  3 39  1  0
  3 40  1  0
  4 41  1  0
  4 42  1  0
  5 43  1  0
  8 44  1  0
 11 45  1  0
 12 46  1  1
 13 47  1  0
 13 48  1  0
 14 49  1  0
 14 50  1  0
 15 51  1  6
 16 52  1  0
 17 53  1  0
 17 54  1  0
 18 55  1  0
 18 56  1  0
 21 57  1  0
 22 58  1  0
 24 59  1  0
 24 60  1  0
 25 61  1  0
 26 62  1  0
 27 63  1  0
 27 64  1  0
 28 65  1  0
 28 66  1  0
 29 67  1  0
 29 68  1  0
 30 69  1  0
 30 70  1  0
 31 71  1  0
 31 72  1  0
 32 73  1  0
M  END
$$$$
[H]c1c([H])c(C([H])([H])C([H])([H])C([H])([H])N([H])c2nc([H])c3c(-c4c([H])c([H])c(N5C([H])([H])C([H])([H])OC([H])([H])C5([H])[H])c([H])c4[H])nn(C([H])([H])C4([H])C([H])([H])C([H])([H])C([H])(N([H])[H])C([H])([H])C4([H])[H])c3n2)c([H])c([H])c1F
     RDKit          3D

 78 83  0  0  0  0  0  0  0  0999 V2000
    1.0068    6.8813   -0.2830 N   0  0  0  0  0  0  0  0  0  0  0  0
    0.3045    5.8864   -1.0970 C   0  0  0  0  0  0  0  0  0  0  0  0
    1.1025    4.6532   -1.3222 C   0  0  0  0  0  0  0  0  0  0  0  0
    0.9719    3.5864   -0.3007 C   0  0  0  0  0  0  0  0  0  0  0  0
   -0.0042    3.9542    0.7646 C   0  0  0  0  0  0  0  0  0  0  0  0
   -0.1854    2.9592    1.8504 C   0  0  0  0  0  0  0  0  0  0  0  0
   -0.6485    1.6692    1.4565 N   0  0  0  0  0  0  0  0  0  0  0  0
   -1.8907    1.2694    1.3530 N   0  0  0  0  0  0  0  0  0  0  0  0
   -1.9729   -0.0130    0.9532 C   0  0  0  0  0  0  0  0  0  0  0  0
   -3.1923   -0.7510    0.7473 C   0  0  0  0  0  0  0  0  0  0  0  0
   -3.3764   -1.5145   -0.3715 C   0  0  0  0  0  0  0  0  0  0  0  0
   -4.5584   -2.2404   -0.5803 C   0  0  0  0  0  0  0  0  0  0  0  0
   -5.5590   -2.1886    0.3550 C   0  0  0  0  0  0  0  0  0  0  0  0
   -5.3805   -1.4055    1.5114 C   0  0  0  0  0  0  0  0  0  0  0  0
   -4.1922   -0.6965    1.6869 C   0  0  0  0  0  0  0  0  0  0  0  0
   -6.7682   -2.8855    0.2011 N   0  0  0  0  0  0  0  0  0  0  0  0
   -7.7348   -3.0068    1.2951 C   0  0  0  0  0  0  0  0  0  0  0  0
   -8.5988   -4.2120    0.9477 C   0  0  0  0  0  0  0  0  0  0  0  0
   -7.7148   -5.2261    0.5282 O   0  0  0  0  0  0  0  0  0  0  0  0
   -7.3160   -5.0146   -0.8075 C   0  0  0  0  0  0  0  0  0  0  0  0
   -7.1392   -3.5153   -1.0332 C   0  0  0  0  0  0  0  0  0  0  0  0
   -0.6929   -0.4466    0.7956 C   0  0  0  0  0  0  0  0  0  0  0  0
   -0.1841   -1.6679    0.4074 C   0  0  0  0  0  0  0  0  0  0  0  0
    1.1544   -1.8024    0.3444 N   0  0  0  0  0  0  0  0  0  0  0  0
    1.9772   -0.7678    0.6536 C   0  0  0  0  0  0  0  0  0  0  0  0
    3.3786   -0.9876    0.5630 N   0  0  0  0  0  0  0  0  0  0  0  0
    3.9291   -2.2514    0.1606 C   0  0  0  0  0  0  0  0  0  0  0  0
    5.4271   -2.2440    0.1300 C   0  0  0  0  0  0  0  0  0  0  0  0
    5.9035   -1.1997   -0.8534 C   0  0  0  0  0  0  0  0  0  0  0  0
    7.3887   -1.2282   -0.8519 C   0  0  0  0  0  0  0  0  0  0  0  0
    8.0963   -0.4286    0.0209 C   0  0  0  0  0  0  0  0  0  0  0  0
    9.4737   -0.4269    0.0519 C   0  0  0  0  0  0  0  0  0  0  0  0
   10.1674   -1.2344   -0.7996 C   0  0  0  0  0  0  0  0  0  0  0  0
   11.5178   -1.2712   -0.8104 F   0  0  0  0  0  0  0  0  0  0  0  0
    9.4740   -2.0388   -1.6772 C   0  0  0  0  0  0  0  0  0  0  0  0
    8.0959   -2.0383   -1.7058 C   0  0  0  0  0  0  0  0  0  0  0  0
    1.4566    0.4129    1.0295 N   0  0  0  0  0  0  0  0  0  0  0  0
    0.1182    0.6251    1.1167 C   0  0  0  0  0  0  0  0  0  0  0  0
   -1.2917    4.3373    0.0740 C   0  0  0  0  0  0  0  0  0  0  0  0
   -1.0926    5.6525   -0.6070 C   0  0  0  0  0  0  0  0  0  0  0  0
    0.3263    7.3714    0.3558 H   0  0  0  0  0  0  0  0  0  0  0  0
    1.5409    7.5578   -0.8690 H   0  0  0  0  0  0  0  0  0  0  0  0
    0.1941    6.3875   -2.1063 H   0  0  0  0  0  0  0  0  0  0  0  0
    2.1892    4.9657   -1.3472 H   0  0  0  0  0  0  0  0  0  0  0  0
    0.9274    4.2588   -2.3667 H   0  0  0  0  0  0  0  0  0  0  0  0
    0.5699    2.6704   -0.8125 H   0  0  0  0  0  0  0  0  0  0  0  0
    1.9649    3.2703    0.1186 H   0  0  0  0  0  0  0  0  0  0  0  0
    0.3653    4.9005    1.2587 H   0  0  0  0  0  0  0  0  0  0  0  0
   -0.8400    3.4287    2.6276 H   0  0  0  0  0  0  0  0  0  0  0  0
    0.8106    2.8453    2.3616 H   0  0  0  0  0  0  0  0  0  0  0  0
   -2.6053   -1.5847   -1.1503 H   0  0  0  0  0  0  0  0  0  0  0  0
   -4.6219   -2.8247   -1.4894 H   0  0  0  0  0  0  0  0  0  0  0  0
   -6.1877   -1.3883    2.2254 H   0  0  0  0  0  0  0  0  0  0  0  0
   -4.0857   -0.1035    2.5869 H   0  0  0  0  0  0  0  0  0  0  0  0
   -7.2402   -3.2188    2.2535 H   0  0  0  0  0  0  0  0  0  0  0  0
   -8.3889   -2.1410    1.3839 H   0  0  0  0  0  0  0  0  0  0  0  0
   -9.1475   -4.6024    1.8198 H   0  0  0  0  0  0  0  0  0  0  0  0
   -9.3264   -3.9543    0.1374 H   0  0  0  0  0  0  0  0  0  0  0  0
   -6.3391   -5.5162   -0.9480 H   0  0  0  0  0  0  0  0  0  0  0  0
   -8.0945   -5.3816   -1.5063 H   0  0  0  0  0  0  0  0  0  0  0  0
   -6.4566   -3.3148   -1.8553 H   0  0  0  0  0  0  0  0  0  0  0  0
   -8.1299   -3.0621   -1.3260 H   0  0  0  0  0  0  0  0  0  0  0  0
   -0.8376   -2.4906    0.1639 H   0  0  0  0  0  0  0  0  0  0  0  0
    4.0327   -0.2061    0.7971 H   0  0  0  0  0  0  0  0  0  0  0  0
    3.5185   -3.0324    0.8320 H   0  0  0  0  0  0  0  0  0  0  0  0
    3.5142   -2.4947   -0.8549 H   0  0  0  0  0  0  0  0  0  0  0  0
    5.7903   -1.9047    1.1428 H   0  0  0  0  0  0  0  0  0  0  0  0
    5.8433   -3.2375   -0.0679 H   0  0  0  0  0  0  0  0  0  0  0  0
    5.6093   -0.1991   -0.4813 H   0  0  0  0  0  0  0  0  0  0  0  0
    5.5031   -1.3773   -1.8734 H   0  0  0  0  0  0  0  0  0  0  0  0
    7.5504    0.2173    0.7021 H   0  0  0  0  0  0  0  0  0  0  0  0
    9.9782    0.2255    0.7624 H   0  0  0  0  0  0  0  0  0  0  0  0
    9.9737   -2.7107   -2.3873 H   0  0  0  0  0  0  0  0  0  0  0  0
    7.5456   -2.6724   -2.3976 H   0  0  0  0  0  0  0  0  0  0  0  0
   -1.5336    3.5906   -0.7116 H   0  0  0  0  0  0  0  0  0  0  0  0
   -2.1591    4.3655    0.7547 H   0  0  0  0  0  0  0  0  0  0  0  0
   -1.3536    6.4611    0.1058 H   0  0  0  0  0  0  0  0  0  0  0  0
   -1.8511    5.7177   -1.4342 H   0  0  0  0  0  0  0  0  0  0  0  0
  1  2  1  0
  2  3  1  0
  3  4  1  0
  4  5  1  0
  5  6  1  0
  6  7  1  0
  7  8  1  0
  8  9  2  0
  9 10  1  0
 10 11  2  0
 11 12  1  0
 12 13  2  0
 13 14  1  0
 14 15  2  0
 13 16  1  0
 16 17  1  0
 17 18  1  0
 18 19  1  0
 19 20  1  0
 20 21  1  0
  9 22  1  0
 22 23  2  0
 23 24  1  0
 24 25  2  0
 25 26  1  0
 26 27  1  0
 27 28  1  0
 28 29  1  0
 29 30  1  0
 30 31  2  0
 31 32  1  0
 32 33  2  0
 33 34  1  0
 33 35  1  0
 35 36  2  0
 25 37  1  0
 37 38  2  0
  5 39  1  0
 39 40  1  0
 40  2  1  0
 38  7  1  0
 15 10  1  0
 21 16  1  0
 38 22  1  0
 36 30  1  0
  1 41  1  0
  1 42  1  0
  2 43  1  0
  3 44  1  0
  3 45  1  0
  4 46  1  0
  4 47  1  0
  5 48  1  0
  6 49  1  0
  6 50  1  0
 11 51  1  0
 12 52  1  0
 14 53  1  0
 15 54  1  0
 17 55  1  0
 17 56  1  0
 18 57  1  0
 18 58  1  0
 20 59  1  0
 20 60  1  0
 21 61  1  0
 21 62  1  0
 23 63  1  0
 26 64  1  0
 27 65  1  0
 27 66  1  0
 28 67  1  0
 28 68  1  0
 29 69  1  0
 29 70  1  0
 31 71  1  0
 32 72  1  0
 35 73  1  0
 36 74  1  0
 39 75  1  0
 39 76  1  0
 40 77  1  0
 40 78  1  0
M  END
$$$$
[H]O[C@]1([H])C([H])([H])C([H])([H])[C@@]([H])(N([H])c2nc(N([H])C([H])([H])C([H])([H])C([H])([H])C([H])([H])[H])nc([H])c2C(=O)N([H])C([H])([H])c2c([H])nc(-c3c([H])c([H])c([H])c([H])c3OC([H])([H])[H])c([H])c2[H])C([H])([H])C1([H])[H]
     RDKit          3D

 73 76  0  0  0  0  0  0  0  0999 V2000
   -3.3191    4.0806   -1.8221 C   0  0  0  0  0  0  0  0  0  0  0  0
   -4.4821    3.3742   -2.4253 C   0  0  0  0  0  0  0  0  0  0  0  0
   -4.9054    2.1096   -1.7662 C   0  0  0  0  0  0  0  0  0  0  0  0
   -5.3569    2.2245   -0.3545 C   0  0  0  0  0  0  0  0  0  0  0  0
   -4.3943    2.6945    0.5849 N   0  0  0  0  0  0  0  0  0  0  0  0
   -3.2561    1.8905    0.9071 C   0  0  0  0  0  0  0  0  0  0  0  0
   -2.3934    2.4129    1.7997 N   0  0  0  0  0  0  0  0  0  0  0  0
   -1.2980    1.7379    2.1730 C   0  0  0  0  0  0  0  0  0  0  0  0
   -1.0631    0.4741    1.6172 C   0  0  0  0  0  0  0  0  0  0  0  0
    0.1612   -0.1900    2.0584 C   0  0  0  0  0  0  0  0  0  0  0  0
    0.5655   -1.3095    1.6513 O   0  0  0  0  0  0  0  0  0  0  0  0
    1.0235    0.4190    3.0291 N   0  0  0  0  0  0  0  0  0  0  0  0
    2.2289   -0.3105    3.4082 C   0  0  0  0  0  0  0  0  0  0  0  0
    3.2722   -0.2155    2.3847 C   0  0  0  0  0  0  0  0  0  0  0  0
    4.4079   -0.9750    2.4987 C   0  0  0  0  0  0  0  0  0  0  0  0
    5.4089   -0.8886    1.5303 C   0  0  0  0  0  0  0  0  0  0  0  0
    5.2693   -0.0461    0.4578 C   0  0  0  0  0  0  0  0  0  0  0  0
    4.1329    0.6823    0.3879 N   0  0  0  0  0  0  0  0  0  0  0  0
    3.1550    0.6228    1.2984 C   0  0  0  0  0  0  0  0  0  0  0  0
    6.3038    0.0608   -0.5536 C   0  0  0  0  0  0  0  0  0  0  0  0
    7.4367   -0.7017   -0.4870 C   0  0  0  0  0  0  0  0  0  0  0  0
    8.4450   -0.6000   -1.4605 C   0  0  0  0  0  0  0  0  0  0  0  0
    8.2960    0.2799   -2.5010 C   0  0  0  0  0  0  0  0  0  0  0  0
    7.1446    1.0478   -2.5591 C   0  0  0  0  0  0  0  0  0  0  0  0
    6.1504    0.9580   -1.6133 C   0  0  0  0  0  0  0  0  0  0  0  0
    4.9872    1.7102   -1.6424 O   0  0  0  0  0  0  0  0  0  0  0  0
    4.6558    2.6546   -2.6095 C   0  0  0  0  0  0  0  0  0  0  0  0
   -1.9531   -0.0324    0.7150 C   0  0  0  0  0  0  0  0  0  0  0  0
   -1.7679   -1.3035    0.1292 N   0  0  0  0  0  0  0  0  0  0  0  0
   -2.7242   -1.8434   -0.8387 C   0  0  1  0  0  0  0  0  0  0  0  0
   -2.2988   -3.1844   -1.3452 C   0  0  0  0  0  0  0  0  0  0  0  0
   -2.7166   -4.3052   -0.4105 C   0  0  0  0  0  0  0  0  0  0  0  0
   -4.2370   -4.3690   -0.3266 C   0  0  2  0  0  0  0  0  0  0  0  0
   -4.7134   -5.5219   -0.8954 O   0  0  0  0  0  0  0  0  0  0  0  0
   -4.8280   -3.1010   -0.9300 C   0  0  0  0  0  0  0  0  0  0  0  0
   -4.1229   -1.9174   -0.3051 C   0  0  0  0  0  0  0  0  0  0  0  0
   -3.0520    0.6967    0.3705 N   0  0  0  0  0  0  0  0  0  0  0  0
   -2.4694    3.3659   -1.6889 H   0  0  0  0  0  0  0  0  0  0  0  0
   -3.5165    4.5910   -0.8693 H   0  0  0  0  0  0  0  0  0  0  0  0
   -2.9156    4.8299   -2.5647 H   0  0  0  0  0  0  0  0  0  0  0  0
   -5.3553    4.0875   -2.4861 H   0  0  0  0  0  0  0  0  0  0  0  0
   -4.2205    3.1357   -3.4968 H   0  0  0  0  0  0  0  0  0  0  0  0
   -5.7165    1.6579   -2.4049 H   0  0  0  0  0  0  0  0  0  0  0  0
   -4.0554    1.3724   -1.8608 H   0  0  0  0  0  0  0  0  0  0  0  0
   -5.7912    1.2356   -0.0114 H   0  0  0  0  0  0  0  0  0  0  0  0
   -6.2522    2.9134   -0.3153 H   0  0  0  0  0  0  0  0  0  0  0  0
   -4.5269    3.6429    1.0487 H   0  0  0  0  0  0  0  0  0  0  0  0
   -0.6387    2.2016    2.8890 H   0  0  0  0  0  0  0  0  0  0  0  0
    0.8868    1.3179    3.4916 H   0  0  0  0  0  0  0  0  0  0  0  0
    2.5684    0.0608    4.3835 H   0  0  0  0  0  0  0  0  0  0  0  0
    1.9932   -1.4095    3.5354 H   0  0  0  0  0  0  0  0  0  0  0  0
    4.5326   -1.6534    3.3501 H   0  0  0  0  0  0  0  0  0  0  0  0
    6.2630   -1.5188    1.6993 H   0  0  0  0  0  0  0  0  0  0  0  0
    2.2494    1.2449    1.1821 H   0  0  0  0  0  0  0  0  0  0  0  0
    7.6270   -1.4138    0.2951 H   0  0  0  0  0  0  0  0  0  0  0  0
    9.3432   -1.2022   -1.4110 H   0  0  0  0  0  0  0  0  0  0  0  0
    9.0794    0.3615   -3.2631 H   0  0  0  0  0  0  0  0  0  0  0  0
    7.0073    1.7465   -3.3709 H   0  0  0  0  0  0  0  0  0  0  0  0
    5.5636    3.2306   -2.8821 H   0  0  0  0  0  0  0  0  0  0  0  0
    3.9705    3.4015   -2.1091 H   0  0  0  0  0  0  0  0  0  0  0  0
    4.0981    2.2854   -3.4760 H   0  0  0  0  0  0  0  0  0  0  0  0
   -0.9776   -1.9022    0.3452 H   0  0  0  0  0  0  0  0  0  0  0  0
   -2.6888   -1.1397   -1.7190 H   0  0  0  0  0  0  0  0  0  0  0  0
   -1.1704   -3.2189   -1.3426 H   0  0  0  0  0  0  0  0  0  0  0  0
   -2.5837   -3.4013   -2.3869 H   0  0  0  0  0  0  0  0  0  0  0  0
   -2.2439   -4.1957    0.5785 H   0  0  0  0  0  0  0  0  0  0  0  0
   -2.3790   -5.2544   -0.8649 H   0  0  0  0  0  0  0  0  0  0  0  0
   -4.4979   -4.3615    0.7500 H   0  0  0  0  0  0  0  0  0  0  0  0
   -4.0430   -5.9876   -1.4195 H   0  0  0  0  0  0  0  0  0  0  0  0
   -4.5703   -3.1040   -2.0097 H   0  0  0  0  0  0  0  0  0  0  0  0
   -5.9137   -3.0785   -0.8330 H   0  0  0  0  0  0  0  0  0  0  0  0
   -4.7339   -1.0089   -0.5147 H   0  0  0  0  0  0  0  0  0  0  0  0
   -4.0845   -2.1484    0.7969 H   0  0  0  0  0  0  0  0  0  0  0  0
  1  2  1  0
  2  3  1  0
  3  4  1  0
  4  5  1  0
  5  6  1  0
  6  7  2  0
  7  8  1  0
  8  9  2  0
  9 10  1  0
 10 11  2  0
 10 12  1  0
 12 13  1  0
 13 14  1  0
 14 15  2  0
 15 16  1  0
 16 17  2  0
 17 18  1  0
 18 19  2  0
 17 20  1  0
 20 21  2  0
 21 22  1  0
 22 23  2  0
 23 24  1  0
 24 25  2  0
 25 26  1  0
 26 27  1  0
  9 28  1  0
 28 29  1  0
 29 30  1  0
 30 31  1  0
 31 32  1  0
 32 33  1  0
 33 34  1  0
 33 35  1  0
 35 36  1  0
 28 37  2  0
 37  6  1  0
 19 14  1  0
 25 20  1  0
 36 30  1  0
  1 38  1  0
  1 39  1  0
  1 40  1  0
  2 41  1  0
  2 42  1  0
  3 43  1  0
  3 44  1  0
  4 45  1  0
  4 46  1  0
  5 47  1  0
  8 48  1  0
 12 49  1  0
 13 50  1  0
 13 51  1  0
 15 52  1  0
 16 53  1  0
 19 54  1  0
 21 55  1  0
 22 56  1  0
 23 57  1  0
 24 58  1  0
 27 59  1  0
 27 60  1  0
 27 61  1  0
 29 62  1  0
 30 63  1  6
 31 64  1  0
 31 65  1  0
 32 66  1  0
 32 67  1  0
 33 68  1  1
 34 69  1  0
 35 70  1  0
 35 71  1  0
 36 72  1  0
 36 73  1  0
M  END
$$$$
[H]Oc1c([H])c([H])c(-c2c([H])nc(N([H])[H])c(C(=O)N([H])[C@@]3([H])C([H])([H])C([H])([H])C([H])([H])[C@]3([H])OC([H])([H])c3c([H])c([H])c(C([H])([H])[H])c(C([H])([H])[H])c3[H])c2[H])c([H])c1OC([H])([H])[H]
     RDKit          3D

 65 68  0  0  0  0  0  0  0  0999 V2000
    6.8479   -0.6449   -4.2487 C   0  0  0  0  0  0  0  0  0  0  0  0
    6.4834    0.6233   -3.7871 O   0  0  0  0  0  0  0  0  0  0  0  0
    5.7049    0.8583   -2.6572 C   0  0  0  0  0  0  0  0  0  0  0  0
    5.2071   -0.1568   -1.8664 C   0  0  0  0  0  0  0  0  0  0  0  0
    4.4361    0.0840   -0.7479 C   0  0  0  0  0  0  0  0  0  0  0  0
    4.1821    1.4292   -0.4536 C   0  0  0  0  0  0  0  0  0  0  0  0
    4.6726    2.4508   -1.2340 C   0  0  0  0  0  0  0  0  0  0  0  0
    5.4385    2.1819   -2.3434 C   0  0  0  0  0  0  0  0  0  0  0  0
    5.9484    3.2023   -3.1523 O   0  0  0  0  0  0  0  0  0  0  0  0
    3.9062   -0.9739    0.0926 C   0  0  0  0  0  0  0  0  0  0  0  0
    4.6299   -2.1339    0.2300 C   0  0  0  0  0  0  0  0  0  0  0  0
    4.1356   -3.1069    1.0078 N   0  0  0  0  0  0  0  0  0  0  0  0
    2.9436   -2.9716    1.6580 C   0  0  0  0  0  0  0  0  0  0  0  0
    2.5406   -4.0872    2.4511 N   0  0  0  0  0  0  0  0  0  0  0  0
    2.1853   -1.8336    1.5522 C   0  0  0  0  0  0  0  0  0  0  0  0
    2.6968   -0.8341    0.7511 C   0  0  0  0  0  0  0  0  0  0  0  0
    0.9257   -1.7395    2.2639 C   0  0  0  0  0  0  0  0  0  0  0  0
    0.5946   -2.7581    2.9697 O   0  0  0  0  0  0  0  0  0  0  0  0
    0.0858   -0.6004    2.2030 N   0  0  0  0  0  0  0  0  0  0  0  0
   -1.1479   -0.5842    2.9378 C   0  0  1  0  0  0  0  0  0  0  0  0
   -1.1324    0.6266    3.8181 C   0  0  0  0  0  0  0  0  0  0  0  0
   -2.4135    1.3700    3.5939 C   0  0  0  0  0  0  0  0  0  0  0  0
   -3.3074    0.3532    2.9574 C   0  0  0  0  0  0  0  0  0  0  0  0
   -2.3530   -0.3907    2.0402 C   0  0  2  0  0  0  0  0  0  0  0  0
   -2.9618   -1.5745    1.7095 O   0  0  0  0  0  0  0  0  0  0  0  0
   -3.2182   -1.7892    0.3862 C   0  0  0  0  0  0  0  0  0  0  0  0
   -4.1016   -0.8198   -0.2725 C   0  0  0  0  0  0  0  0  0  0  0  0
   -5.4669   -0.8762   -0.1484 C   0  0  0  0  0  0  0  0  0  0  0  0
   -6.2401    0.0541   -0.7944 C   0  0  0  0  0  0  0  0  0  0  0  0
   -5.6590    1.0464   -1.5678 C   0  0  0  0  0  0  0  0  0  0  0  0
   -6.4851    2.0633   -2.2753 C   0  0  0  0  0  0  0  0  0  0  0  0
   -4.2882    1.1304   -1.7127 C   0  0  0  0  0  0  0  0  0  0  0  0
   -3.6971    2.2045   -2.5476 C   0  0  0  0  0  0  0  0  0  0  0  0
   -3.5557    0.1789   -1.0486 C   0  0  0  0  0  0  0  0  0  0  0  0
    7.0056   -1.3149   -3.3841 H   0  0  0  0  0  0  0  0  0  0  0  0
    7.7636   -0.5294   -4.8670 H   0  0  0  0  0  0  0  0  0  0  0  0
    5.9932   -1.0333   -4.8530 H   0  0  0  0  0  0  0  0  0  0  0  0
    5.4158   -1.1834   -2.1129 H   0  0  0  0  0  0  0  0  0  0  0  0
    3.5792    1.6272    0.4202 H   0  0  0  0  0  0  0  0  0  0  0  0
    4.4779    3.4962   -1.0094 H   0  0  0  0  0  0  0  0  0  0  0  0
    5.7306    4.1597   -2.8877 H   0  0  0  0  0  0  0  0  0  0  0  0
    5.5898   -2.2805   -0.2749 H   0  0  0  0  0  0  0  0  0  0  0  0
    2.7446   -4.0985    3.4661 H   0  0  0  0  0  0  0  0  0  0  0  0
    2.0447   -4.8555    1.9396 H   0  0  0  0  0  0  0  0  0  0  0  0
    2.1224    0.0924    0.6390 H   0  0  0  0  0  0  0  0  0  0  0  0
    0.3609    0.2094    1.6344 H   0  0  0  0  0  0  0  0  0  0  0  0
   -1.2720   -1.5322    3.4996 H   0  0  0  0  0  0  0  0  0  0  0  0
   -0.2915    1.3197    3.5740 H   0  0  0  0  0  0  0  0  0  0  0  0
   -1.0897    0.2982    4.8777 H   0  0  0  0  0  0  0  0  0  0  0  0
   -2.8768    1.7321    4.5315 H   0  0  0  0  0  0  0  0  0  0  0  0
   -2.2740    2.2001    2.8666 H   0  0  0  0  0  0  0  0  0  0  0  0
   -4.0896    0.8941    2.3948 H   0  0  0  0  0  0  0  0  0  0  0  0
   -3.7186   -0.3836    3.6686 H   0  0  0  0  0  0  0  0  0  0  0  0
   -2.1335    0.2687    1.1944 H   0  0  0  0  0  0  0  0  0  0  0  0
   -3.7179   -2.7871    0.3063 H   0  0  0  0  0  0  0  0  0  0  0  0
   -2.2839   -1.8768   -0.2050 H   0  0  0  0  0  0  0  0  0  0  0  0
   -5.9591   -1.6276    0.4404 H   0  0  0  0  0  0  0  0  0  0  0  0
   -7.3400    0.0420   -0.7197 H   0  0  0  0  0  0  0  0  0  0  0  0
   -6.1113    3.1011   -2.0637 H   0  0  0  0  0  0  0  0  0  0  0  0
   -6.4696    1.8929   -3.3557 H   0  0  0  0  0  0  0  0  0  0  0  0
   -7.5179    2.0280   -1.8842 H   0  0  0  0  0  0  0  0  0  0  0  0
   -4.0445    3.2044   -2.2044 H   0  0  0  0  0  0  0  0  0  0  0  0
   -2.6137    2.1154   -2.6192 H   0  0  0  0  0  0  0  0  0  0  0  0
   -4.0978    2.0899   -3.5975 H   0  0  0  0  0  0  0  0  0  0  0  0
   -2.4643    0.2660   -1.1792 H   0  0  0  0  0  0  0  0  0  0  0  0
  1  2  1  0
  2  3  1  0
  3  4  2  0
  4  5  1  0
  5  6  2  0
  6  7  1  0
  7  8  2  0
  8  9  1  0
  5 10  1  0
 10 11  2  0
 11 12  1  0
 12 13  2  0
 13 14  1  0
 13 15  1  0
 15 16  2  0
 15 17  1  0
 17 18  2  0
 17 19  1  0
 19 20  1  0
 20 21  1  0
 21 22  1  0
 22 23  1  0
 23 24  1  0
 24 25  1  0
 25 26  1  0
 26 27  1  0
 27 28  2  0
 28 29  1  0
 29 30  2  0
 30 31  1  0
 30 32  1  0
 32 33  1  0
 32 34  2  0
  8  3  1  0
 16 10  1  0
 24 20  1  0
 34 27  1  0
  1 35  1  0
  1 36  1  0
  1 37  1  0
  4 38  1  0
  6 39  1  0
  7 40  1  0
  9 41  1  0
 11 42  1  0
 14 43  1  0
 14 44  1  0
 16 45  1  0
 19 46  1  0
 20 47  1  1
 21 48  1  0
 21 49  1  0
 22 50  1  0
 22 51  1  0
 23 52  1  0
 23 53  1  0
 24 54  1  6
 26 55  1  0
 26 56  1  0
 28 57  1  0
 29 58  1  0
 31 59  1  0
 31 60  1  0
 31 61  1  0
 33 62  1  0
 33 63  1  0
 33 64  1  0
 34 65  1  0
M  END
$$$$
[H]OC1([H])C([H])([H])C([H])([H])C([H])(N([H])c2nc(N([H])C([H])([H])C([H])([H])C([H])([H])C([H])([H])[H])nc([H])c2-c2nc([H])nc(N([H])C([H])([H])C([H])([H])C([H])([H])C([H])([H])C([H])([H])[H])c2[H])C([H])([H])C1([H])[H]
     RDKit          3D

 68 70  0  0  0  0  0  0  0  0999 V2000
   -7.2934    2.4352    1.5067 C   0  0  0  0  0  0  0  0  0  0  0  0
   -8.0361    1.1686    1.1694 C   0  0  0  0  0  0  0  0  0  0  0  0
   -7.7792    0.7702   -0.2632 C   0  0  0  0  0  0  0  0  0  0  0  0
   -6.3112    0.5215   -0.5394 C   0  0  0  0  0  0  0  0  0  0  0  0
   -5.7364   -0.5619    0.2953 C   0  0  0  0  0  0  0  0  0  0  0  0
   -4.3402   -0.7488   -0.0143 N   0  0  0  0  0  0  0  0  0  0  0  0
   -3.3509    0.2144    0.3042 C   0  0  0  0  0  0  0  0  0  0  0  0
   -2.0231   -0.0155   -0.0529 C   0  0  0  0  0  0  0  0  0  0  0  0
   -1.0485    0.8801    0.2542 C   0  0  0  0  0  0  0  0  0  0  0  0
   -1.4922    1.9999    0.9282 N   0  0  0  0  0  0  0  0  0  0  0  0
   -2.7424    2.2252    1.2681 C   0  0  0  0  0  0  0  0  0  0  0  0
   -3.6770    1.3263    0.9544 N   0  0  0  0  0  0  0  0  0  0  0  0
    0.3491    0.8135   -0.1381 C   0  0  0  0  0  0  0  0  0  0  0  0
    0.9934    2.0365   -0.4690 C   0  0  0  0  0  0  0  0  0  0  0  0
    2.2774    2.0532   -0.8343 N   0  0  0  0  0  0  0  0  0  0  0  0
    3.0278    0.9435   -0.9116 C   0  0  0  0  0  0  0  0  0  0  0  0
    4.3928    0.9916   -1.3064 N   0  0  0  0  0  0  0  0  0  0  0  0
    5.1048    2.1938   -1.6526 C   0  0  0  0  0  0  0  0  0  0  0  0
    5.2238    3.1809   -0.5137 C   0  0  0  0  0  0  0  0  0  0  0  0
    5.9974    4.3861   -1.0349 C   0  0  0  0  0  0  0  0  0  0  0  0
    7.3651    3.9902   -1.5050 C   0  0  0  0  0  0  0  0  0  0  0  0
    2.4442   -0.2133   -0.6031 N   0  0  0  0  0  0  0  0  0  0  0  0
    1.1179   -0.2968   -0.2152 C   0  0  0  0  0  0  0  0  0  0  0  0
    0.6327   -1.5537    0.2247 N   0  0  0  0  0  0  0  0  0  0  0  0
    1.5141   -2.7207    0.0299 C   0  0  0  0  0  0  0  0  0  0  0  0
    0.8058   -3.9687    0.5312 C   0  0  0  0  0  0  0  0  0  0  0  0
    1.6369   -5.1566    0.0906 C   0  0  0  0  0  0  0  0  0  0  0  0
    2.9776   -5.0910    0.7390 C   0  0  0  0  0  0  0  0  0  0  0  0
    3.0871   -6.1463    1.6742 O   0  0  0  0  0  0  0  0  0  0  0  0
    3.2110   -3.8176    1.5119 C   0  0  0  0  0  0  0  0  0  0  0  0
    2.8292   -2.5860    0.7157 C   0  0  0  0  0  0  0  0  0  0  0  0
   -6.9186    2.8902    0.5733 H   0  0  0  0  0  0  0  0  0  0  0  0
   -7.9723    3.1931    1.9816 H   0  0  0  0  0  0  0  0  0  0  0  0
   -6.4808    2.2605    2.2425 H   0  0  0  0  0  0  0  0  0  0  0  0
   -7.8330    0.3450    1.8808 H   0  0  0  0  0  0  0  0  0  0  0  0
   -9.1193    1.3966    1.2465 H   0  0  0  0  0  0  0  0  0  0  0  0
   -8.4059   -0.0961   -0.5537 H   0  0  0  0  0  0  0  0  0  0  0  0
   -8.0885    1.6206   -0.9051 H   0  0  0  0  0  0  0  0  0  0  0  0
   -6.2835    0.1438   -1.6072 H   0  0  0  0  0  0  0  0  0  0  0  0
   -5.7152    1.4293   -0.5028 H   0  0  0  0  0  0  0  0  0  0  0  0
   -6.2606   -1.5447    0.1081 H   0  0  0  0  0  0  0  0  0  0  0  0
   -5.8226   -0.3612    1.3879 H   0  0  0  0  0  0  0  0  0  0  0  0
   -4.0166   -1.6399   -0.5025 H   0  0  0  0  0  0  0  0  0  0  0  0
   -1.7937   -0.9030   -0.6131 H   0  0  0  0  0  0  0  0  0  0  0  0
   -3.0830    3.1210    1.8048 H   0  0  0  0  0  0  0  0  0  0  0  0
    0.3814    2.9314   -0.4047 H   0  0  0  0  0  0  0  0  0  0  0  0
    4.9287    0.0845   -1.3504 H   0  0  0  0  0  0  0  0  0  0  0  0
    4.5681    2.7638   -2.4708 H   0  0  0  0  0  0  0  0  0  0  0  0
    6.1015    1.9500   -2.0623 H   0  0  0  0  0  0  0  0  0  0  0  0
    4.2625    3.4793   -0.0745 H   0  0  0  0  0  0  0  0  0  0  0  0
    5.8081    2.6708    0.2846 H   0  0  0  0  0  0  0  0  0  0  0  0
    5.4320    4.8231   -1.8675 H   0  0  0  0  0  0  0  0  0  0  0  0
    6.0674    5.1034   -0.1842 H   0  0  0  0  0  0  0  0  0  0  0  0
    8.1680    4.6653   -1.1429 H   0  0  0  0  0  0  0  0  0  0  0  0
    7.4374    4.0165   -2.6229 H   0  0  0  0  0  0  0  0  0  0  0  0
    7.6141    2.9709   -1.1435 H   0  0  0  0  0  0  0  0  0  0  0  0
   -0.2659   -1.6714    0.7005 H   0  0  0  0  0  0  0  0  0  0  0  0
    1.6580   -2.8381   -1.0603 H   0  0  0  0  0  0  0  0  0  0  0  0
    0.6703   -3.9230    1.6273 H   0  0  0  0  0  0  0  0  0  0  0  0
   -0.1495   -4.0292   -0.0160 H   0  0  0  0  0  0  0  0  0  0  0  0
    1.1299   -6.1186    0.3043 H   0  0  0  0  0  0  0  0  0  0  0  0
    1.7521   -5.0734   -1.0044 H   0  0  0  0  0  0  0  0  0  0  0  0
    3.7633   -5.2610   -0.0027 H   0  0  0  0  0  0  0  0  0  0  0  0
    3.7380   -5.9003    2.3891 H   0  0  0  0  0  0  0  0  0  0  0  0
    4.3018   -3.7473    1.7060 H   0  0  0  0  0  0  0  0  0  0  0  0
    2.7058   -3.8585    2.4883 H   0  0  0  0  0  0  0  0  0  0  0  0
    2.8907   -1.7374    1.4346 H   0  0  0  0  0  0  0  0  0  0  0  0
    3.6720   -2.4092   -0.0135 H   0  0  0  0  0  0  0  0  0  0  0  0
  1  2  1  0
  2  3  1  0
  3  4  1  0
  4  5  1  0
  5  6  1  0
  6  7  1  0
  7  8  2  0
  8  9  1  0
  9 10  2  0
 10 11  1  0
 11 12  2  0
  9 13  1  0
 13 14  2  0
 14 15  1  0
 15 16  2  0
 16 17  1  0
 17 18  1  0
 18 19  1  0
 19 20  1  0
 20 21  1  0
 16 22  1  0
 22 23  2  0
 23 24  1  0
 24 25  1  0
 25 26  1  0
 26 27  1  0
 27 28  1  0
 28 29  1  0
 28 30  1  0
 30 31  1  0
 12  7  1  0
 23 13  1  0
 31 25  1  0
  1 32  1  0
  1 33  1  0
  1 34  1  0
  2 35  1  0
  2 36  1  0
  3 37  1  0
  3 38  1  0
  4 39  1  0
  4 40  1  0
  5 41  1  0
  5 42  1  0
  6 43  1  0
  8 44  1  0
 11 45  1  0
 14 46  1  0
 17 47  1  0
 18 48  1  0
 18 49  1  0
 19 50  1  0
 19 51  1  0
 20 52  1  0
 20 53  1  0
 21 54  1  0
 21 55  1  0
 21 56  1  0
 24 57  1  0
 25 58  1  0
 26 59  1  0
 26 60  1  0
 27 61  1  0
 27 62  1  0
 28 63  1  0
 29 64  1  0
 30 65  1  0
 30 66  1  0
 31 67  1  0
 31 68  1  0
M  END
$$$$
[H]O[C@]1([H])C([H])([H])C([H])([H])[C@@]([H])(N([H])c2nc(N([H])C([H])(C([H])([H])[H])C([H])([H])[H])nc([H])c2C(=O)N([H])c2c([H])c([H])c(S(=O)(=O)N3C([H])([H])C([H])([H])OC([H])([H])C3([H])[H])c([H])c2[H])C([H])([H])C1([H])[H]
     RDKit          3D

 70 73  0  0  0  0  0  0  0  0999 V2000
   -6.1408    2.3341    1.5758 C   0  0  0  0  0  0  0  0  0  0  0  0
   -6.3678    2.6480    0.1336 C   0  0  0  0  0  0  0  0  0  0  0  0
   -6.8703    1.4136   -0.5727 C   0  0  0  0  0  0  0  0  0  0  0  0
   -5.2097    3.2211   -0.5242 N   0  0  0  0  0  0  0  0  0  0  0  0
   -3.9337    2.5895   -0.5639 C   0  0  0  0  0  0  0  0  0  0  0  0
   -2.9370    3.2213   -1.2117 N   0  0  0  0  0  0  0  0  0  0  0  0
   -1.6967    2.6818   -1.2751 C   0  0  0  0  0  0  0  0  0  0  0  0
   -1.4237    1.4512   -0.6658 C   0  0  0  0  0  0  0  0  0  0  0  0
   -0.0937    0.9032   -0.7815 C   0  0  0  0  0  0  0  0  0  0  0  0
    0.1663   -0.2118   -0.2846 O   0  0  0  0  0  0  0  0  0  0  0  0
    0.9633    1.5694   -1.4413 N   0  0  0  0  0  0  0  0  0  0  0  0
    2.2917    1.1206   -1.6234 C   0  0  0  0  0  0  0  0  0  0  0  0
    2.6167   -0.1949   -1.6335 C   0  0  0  0  0  0  0  0  0  0  0  0
    3.9485   -0.5642   -1.7906 C   0  0  0  0  0  0  0  0  0  0  0  0
    4.9564    0.3440   -1.9377 C   0  0  0  0  0  0  0  0  0  0  0  0
    4.6088    1.6738   -1.9258 C   0  0  0  0  0  0  0  0  0  0  0  0
    3.3134    2.0909   -1.7739 C   0  0  0  0  0  0  0  0  0  0  0  0
    6.5931   -0.1925   -2.1327 S   0  0  0  0  0  0  0  0  0  0  0  0
    7.3125    0.7496   -3.0560 O   0  0  0  0  0  0  0  0  0  0  0  0
    6.5222   -1.5209   -2.8745 O   0  0  0  0  0  0  0  0  0  0  0  0
    7.3339   -0.3408   -0.6239 N   0  0  0  0  0  0  0  0  0  0  0  0
    6.7728   -1.2686    0.2756 C   0  0  0  0  0  0  0  0  0  0  0  0
    7.6584   -1.6012    1.4514 C   0  0  0  0  0  0  0  0  0  0  0  0
    8.6733   -0.6631    1.6200 O   0  0  0  0  0  0  0  0  0  0  0  0
    8.2618    0.6238    1.3751 C   0  0  0  0  0  0  0  0  0  0  0  0
    7.9474    0.8069   -0.0771 C   0  0  0  0  0  0  0  0  0  0  0  0
   -2.4324    0.8143   -0.0106 C   0  0  0  0  0  0  0  0  0  0  0  0
   -2.2919   -0.3876    0.6756 N   0  0  0  0  0  0  0  0  0  0  0  0
   -3.4811   -1.0011    1.3180 C   0  0  1  0  0  0  0  0  0  0  0  0
   -4.4811   -1.4810    0.3316 C   0  0  0  0  0  0  0  0  0  0  0  0
   -4.4099   -2.9598    0.0195 C   0  0  0  0  0  0  0  0  0  0  0  0
   -3.1885   -3.6168    0.6197 C   0  0  2  0  0  0  0  0  0  0  0  0
   -3.3125   -4.9922    0.3973 O   0  0  0  0  0  0  0  0  0  0  0  0
   -3.2859   -3.3925    2.1153 C   0  0  0  0  0  0  0  0  0  0  0  0
   -3.1154   -1.9433    2.4093 C   0  0  0  0  0  0  0  0  0  0  0  0
   -3.6687    1.4226    0.0119 N   0  0  0  0  0  0  0  0  0  0  0  0
   -7.0679    2.5400    2.1401 H   0  0  0  0  0  0  0  0  0  0  0  0
   -5.9373    1.2373    1.7316 H   0  0  0  0  0  0  0  0  0  0  0  0
   -5.3323    2.9533    2.0404 H   0  0  0  0  0  0  0  0  0  0  0  0
   -7.1733    3.4258    0.0887 H   0  0  0  0  0  0  0  0  0  0  0  0
   -6.0386    0.9641   -1.1740 H   0  0  0  0  0  0  0  0  0  0  0  0
   -7.6932    1.7001   -1.2651 H   0  0  0  0  0  0  0  0  0  0  0  0
   -7.2759    0.6606    0.1262 H   0  0  0  0  0  0  0  0  0  0  0  0
   -5.2832    4.1626   -1.0131 H   0  0  0  0  0  0  0  0  0  0  0  0
   -0.9676    3.2577   -1.8142 H   0  0  0  0  0  0  0  0  0  0  0  0
    0.7375    2.5305   -1.8547 H   0  0  0  0  0  0  0  0  0  0  0  0
    1.8786   -0.9619   -1.5433 H   0  0  0  0  0  0  0  0  0  0  0  0
    4.1960   -1.6203   -1.7965 H   0  0  0  0  0  0  0  0  0  0  0  0
    5.4225    2.4038   -2.0446 H   0  0  0  0  0  0  0  0  0  0  0  0
    3.0227    3.1221   -1.7622 H   0  0  0  0  0  0  0  0  0  0  0  0
    5.7845   -0.8553    0.6278 H   0  0  0  0  0  0  0  0  0  0  0  0
    6.5377   -2.2158   -0.2512 H   0  0  0  0  0  0  0  0  0  0  0  0
    8.0667   -2.6271    1.3611 H   0  0  0  0  0  0  0  0  0  0  0  0
    7.0261   -1.5826    2.3609 H   0  0  0  0  0  0  0  0  0  0  0  0
    9.0834    1.3056    1.6811 H   0  0  0  0  0  0  0  0  0  0  0  0
    7.3631    0.9044    1.9630 H   0  0  0  0  0  0  0  0  0  0  0  0
    8.8334    1.1731   -0.6626 H   0  0  0  0  0  0  0  0  0  0  0  0
    7.2178    1.6668   -0.1486 H   0  0  0  0  0  0  0  0  0  0  0  0
   -1.4391   -0.9285    0.8107 H   0  0  0  0  0  0  0  0  0  0  0  0
   -3.9560   -0.1053    1.8311 H   0  0  0  0  0  0  0  0  0  0  0  0
   -5.5219   -1.1742    0.6132 H   0  0  0  0  0  0  0  0  0  0  0  0
   -4.2905   -0.9711   -0.6528 H   0  0  0  0  0  0  0  0  0  0  0  0
   -5.2991   -3.4341    0.4974 H   0  0  0  0  0  0  0  0  0  0  0  0
   -4.4663   -3.1819   -1.0546 H   0  0  0  0  0  0  0  0  0  0  0  0
   -2.2499   -3.2517    0.2047 H   0  0  0  0  0  0  0  0  0  0  0  0
   -4.2461   -5.2813    0.3114 H   0  0  0  0  0  0  0  0  0  0  0  0
   -2.5419   -3.9852    2.6811 H   0  0  0  0  0  0  0  0  0  0  0  0
   -4.3356   -3.6710    2.4093 H   0  0  0  0  0  0  0  0  0  0  0  0
   -2.0192   -1.7861    2.6349 H   0  0  0  0  0  0  0  0  0  0  0  0
   -3.6350   -1.7216    3.3734 H   0  0  0  0  0  0  0  0  0  0  0  0
  1  2  1  0
  2  3  1  0
  2  4  1  0
  4  5  1  0
  5  6  2  0
  6  7  1  0
  7  8  2  0
  8  9  1  0
  9 10  2  0
  9 11  1  0
 11 12  1  0
 12 13  2  0
 13 14  1  0
 14 15  2  0
 15 16  1  0
 16 17  2  0
 15 18  1  0
 18 19  2  0
 18 20  2  0
 18 21  1  0
 21 22  1  0
 22 23  1  0
 23 24  1  0
 24 25  1  0
 25 26  1  0
  8 27  1  0
 27 28  1  0
 28 29  1  0
 29 30  1  0
 30 31  1  0
 31 32  1  0
 32 33  1  0
 32 34  1  0
 34 35  1  0
 27 36  2  0
 36  5  1  0
 17 12  1  0
 26 21  1  0
 35 29  1  0
  1 37  1  0
  1 38  1  0
  1 39  1  0
  2 40  1  0
  3 41  1  0
  3 42  1  0
  3 43  1  0
  4 44  1  0
  7 45  1  0
 11 46  1  0
 13 47  1  0
 14 48  1  0
 16 49  1  0
 17 50  1  0
 22 51  1  0
 22 52  1  0
 23 53  1  0
 23 54  1  0
 25 55  1  0
 25 56  1  0
 26 57  1  0
 26 58  1  0
 28 59  1  0
 29 60  1  1
 30 61  1  0
 30 62  1  0
 31 63  1  0
 31 64  1  0
 32 65  1  6
 33 66  1  0
 34 67  1  0
 34 68  1  0
 35 69  1  0
 35 70  1  0
M  END
$$$$
[H]c1nc(N([H])[H])c(C(=O)N([H])[C@@]2([H])C([H])([H])C([H])([H])C([H])([H])[C@]2([H])OC([H])([H])c2c([H])c([H])c([H])c([H])c2[H])c([H])c1-c1c([H])nn(C2([H])C([H])([H])C([H])([H])N(C([H])([H])C3([H])C([H])([H])N([H])C([H])([H])C3([H])[H])C([H])([H])C2([H])[H])c1[H]
     RDKit          3D

 81 86  0  0  0  0  0  0  0  0999 V2000
   -2.7546    4.4247    1.6063 N   0  0  0  0  0  0  0  0  0  0  0  0
   -1.8347    3.4382    1.1639 C   0  0  0  0  0  0  0  0  0  0  0  0
   -0.5778    3.3596    1.6225 N   0  0  0  0  0  0  0  0  0  0  0  0
    0.2784    2.4123    1.1828 C   0  0  0  0  0  0  0  0  0  0  0  0
   -0.1097    1.4758    0.2329 C   0  0  0  0  0  0  0  0  0  0  0  0
   -1.3894    1.5366   -0.2499 C   0  0  0  0  0  0  0  0  0  0  0  0
   -2.2659    2.5228    0.2137 C   0  0  0  0  0  0  0  0  0  0  0  0
   -3.6308    2.6473   -0.2831 C   0  0  0  0  0  0  0  0  0  0  0  0
   -4.3879    3.5730    0.1151 O   0  0  0  0  0  0  0  0  0  0  0  0
   -4.0924    1.6975   -1.2311 N   0  0  0  0  0  0  0  0  0  0  0  0
   -5.4607    1.8530   -1.7189 C   0  0  1  0  0  0  0  0  0  0  0  0
   -5.5710    1.5472   -3.1794 C   0  0  0  0  0  0  0  0  0  0  0  0
   -6.9009    0.8890   -3.3836 C   0  0  0  0  0  0  0  0  0  0  0  0
   -7.5695    0.8753   -2.0137 C   0  0  0  0  0  0  0  0  0  0  0  0
   -6.3434    0.7591   -1.0934 C   0  0  2  0  0  0  0  0  0  0  0  0
   -6.6425    1.1116    0.1909 O   0  0  0  0  0  0  0  0  0  0  0  0
   -6.2885    0.2693    1.1952 C   0  0  0  0  0  0  0  0  0  0  0  0
   -6.9026   -1.0801    1.1061 C   0  0  0  0  0  0  0  0  0  0  0  0
   -8.2676   -1.1574    1.2119 C   0  0  0  0  0  0  0  0  0  0  0  0
   -8.9076   -2.3726    1.1418 C   0  0  0  0  0  0  0  0  0  0  0  0
   -8.1688   -3.5219    0.9653 C   0  0  0  0  0  0  0  0  0  0  0  0
   -6.7847   -3.4308    0.8594 C   0  0  0  0  0  0  0  0  0  0  0  0
   -6.1668   -2.2095    0.9307 C   0  0  0  0  0  0  0  0  0  0  0  0
    0.8213    0.4641   -0.2532 C   0  0  0  0  0  0  0  0  0  0  0  0
    0.8906   -0.1414   -1.4926 C   0  0  0  0  0  0  0  0  0  0  0  0
    1.9172   -0.9923   -1.4597 N   0  0  0  0  0  0  0  0  0  0  0  0
    2.5328   -0.9952   -0.2871 N   0  0  0  0  0  0  0  0  0  0  0  0
    1.8754   -0.1074    0.4694 C   0  0  0  0  0  0  0  0  0  0  0  0
    3.6832   -1.8040    0.0507 C   0  0  0  0  0  0  0  0  0  0  0  0
    4.0907   -1.5903    1.4655 C   0  0  0  0  0  0  0  0  0  0  0  0
    4.9408   -0.4041    1.7431 C   0  0  0  0  0  0  0  0  0  0  0  0
    6.0431   -0.3402    0.8180 N   0  0  0  0  0  0  0  0  0  0  0  0
    7.0029   -1.3722    1.0424 C   0  0  0  0  0  0  0  0  0  0  0  0
    8.1596   -1.2291    0.0657 C   0  0  0  0  0  0  0  0  0  0  0  0
    8.8232    0.1198    0.2633 C   0  0  0  0  0  0  0  0  0  0  0  0
   10.2973   -0.2526    0.0925 C   0  0  0  0  0  0  0  0  0  0  0  0
   10.3398   -1.4808    0.8589 N   0  0  0  0  0  0  0  0  0  0  0  0
    9.2259   -2.2351    0.3298 C   0  0  0  0  0  0  0  0  0  0  0  0
    5.5362   -0.2311   -0.5114 C   0  0  0  0  0  0  0  0  0  0  0  0
    4.7983   -1.4862   -0.9289 C   0  0  0  0  0  0  0  0  0  0  0  0
   -2.8575    5.3117    1.0836 H   0  0  0  0  0  0  0  0  0  0  0  0
   -3.3286    4.2679    2.4513 H   0  0  0  0  0  0  0  0  0  0  0  0
    1.3000    2.3267    1.5356 H   0  0  0  0  0  0  0  0  0  0  0  0
   -1.6977    0.8188   -0.9850 H   0  0  0  0  0  0  0  0  0  0  0  0
   -3.5557    0.9097   -1.6074 H   0  0  0  0  0  0  0  0  0  0  0  0
   -5.8757    2.8269   -1.4669 H   0  0  0  0  0  0  0  0  0  0  0  0
   -5.4205    2.4343   -3.8294 H   0  0  0  0  0  0  0  0  0  0  0  0
   -4.7973    0.7785   -3.4810 H   0  0  0  0  0  0  0  0  0  0  0  0
   -6.8049   -0.1866   -3.6909 H   0  0  0  0  0  0  0  0  0  0  0  0
   -7.5198    1.4601   -4.1023 H   0  0  0  0  0  0  0  0  0  0  0  0
   -8.2856    0.0721   -1.8726 H   0  0  0  0  0  0  0  0  0  0  0  0
   -7.9837    1.9062   -1.8539 H   0  0  0  0  0  0  0  0  0  0  0  0
   -5.8293   -0.1837   -1.2534 H   0  0  0  0  0  0  0  0  0  0  0  0
   -5.1882    0.1446    1.2837 H   0  0  0  0  0  0  0  0  0  0  0  0
   -6.6010    0.7651    2.1615 H   0  0  0  0  0  0  0  0  0  0  0  0
   -8.8895   -0.2642    1.3505 H   0  0  0  0  0  0  0  0  0  0  0  0
   -9.9959   -2.3874    1.2335 H   0  0  0  0  0  0  0  0  0  0  0  0
   -8.6845   -4.4655    0.9151 H   0  0  0  0  0  0  0  0  0  0  0  0
   -6.2676   -4.3737    0.7198 H   0  0  0  0  0  0  0  0  0  0  0  0
   -5.0894   -2.1851    0.8447 H   0  0  0  0  0  0  0  0  0  0  0  0
    0.1924    0.0917   -2.2983 H   0  0  0  0  0  0  0  0  0  0  0  0
    2.0785    0.1737    1.5028 H   0  0  0  0  0  0  0  0  0  0  0  0
    3.4281   -2.8813   -0.0837 H   0  0  0  0  0  0  0  0  0  0  0  0
    3.1388   -1.4596    2.0501 H   0  0  0  0  0  0  0  0  0  0  0  0
    4.5604   -2.4850    1.9315 H   0  0  0  0  0  0  0  0  0  0  0  0
    5.4111   -0.5712    2.7597 H   0  0  0  0  0  0  0  0  0  0  0  0
    4.4078    0.5720    1.7365 H   0  0  0  0  0  0  0  0  0  0  0  0
    6.5863   -2.3968    1.0106 H   0  0  0  0  0  0  0  0  0  0  0  0
    7.4356   -1.2380    2.0589 H   0  0  0  0  0  0  0  0  0  0  0  0
    7.7733   -1.2683   -0.9635 H   0  0  0  0  0  0  0  0  0  0  0  0
    8.7129    0.4999    1.3007 H   0  0  0  0  0  0  0  0  0  0  0  0
    8.5301    0.8315   -0.5065 H   0  0  0  0  0  0  0  0  0  0  0  0
   10.5367   -0.4717   -0.9540 H   0  0  0  0  0  0  0  0  0  0  0  0
   10.9416    0.5395    0.5185 H   0  0  0  0  0  0  0  0  0  0  0  0
   10.0688   -1.2194    1.8449 H   0  0  0  0  0  0  0  0  0  0  0  0
    9.5305   -2.7337   -0.6251 H   0  0  0  0  0  0  0  0  0  0  0  0
    8.9027   -2.9805    1.0865 H   0  0  0  0  0  0  0  0  0  0  0  0
    6.2549    0.0235   -1.2892 H   0  0  0  0  0  0  0  0  0  0  0  0
    4.7533    0.5805   -0.4990 H   0  0  0  0  0  0  0  0  0  0  0  0
    5.5043   -2.3413   -0.9385 H   0  0  0  0  0  0  0  0  0  0  0  0
    4.3855   -1.3680   -1.9316 H   0  0  0  0  0  0  0  0  0  0  0  0
  1  2  1  0
  2  3  2  0
  3  4  1  0
  4  5  2  0
  5  6  1  0
  6  7  2  0
  7  8  1  0
  8  9  2  0
  8 10  1  0
 10 11  1  0
 11 12  1  0
 12 13  1  0
 13 14  1  0
 14 15  1  0
 15 16  1  0
 16 17  1  0
 17 18  1  0
 18 19  2  0
 19 20  1  0
 20 21  2  0
 21 22  1  0
 22 23  2  0
  5 24  1  0
 24 25  1  0
 25 26  2  0
 26 27  1  0
 27 28  1  0
 27 29  1  0
 29 30  1  0
 30 31  1  0
 31 32  1  0
 32 33  1  0
 33 34  1  0
 34 35  1  0
 35 36  1  0
 36 37  1  0
 37 38  1  0
 32 39  1  0
 39 40  1  0
  7  2  1  0
 15 11  1  0
 23 18  1  0
 28 24  2  0
 40 29  1  0
 38 34  1  0
  1 41  1  0
  1 42  1  0
  4 43  1  0
  6 44  1  0
 10 45  1  0
 11 46  1  6
 12 47  1  0
 12 48  1  0
 13 49  1  0
 13 50  1  0
 14 51  1  0
 14 52  1  0
 15 53  1  1
 17 54  1  0
 17 55  1  0
 19 56  1  0
 20 57  1  0
 21 58  1  0
 22 59  1  0
 23 60  1  0
 25 61  1  0
 28 62  1  0
 29 63  1  0
 30 64  1  0
 30 65  1  0
 31 66  1  0
 31 67  1  0
 33 68  1  0
 33 69  1  0
 34 70  1  0
 35 71  1  0
 35 72  1  0
 36 73  1  0
 36 74  1  0
 37 75  1  0
 38 76  1  0
 38 77  1  0
 39 78  1  0
 39 79  1  0
 40 80  1  0
 40 81  1  0
M  END
$$$$
[H]O[C@]1([H])C([H])([H])C([H])([H])[C@@]([H])(N([H])c2nc(N([H])C([H])([H])C([H])([H])C([H])([H])C([H])([H])[H])nc([H])c2-c2nc([H])c(N([H])C(=O)C3([H])C([H])([H])C([H])([H])N(C([H])([H])[H])C([H])([H])C3([H])[H])c([H])c2[H])C([H])([H])C1([H])[H]
     RDKit          3D

 74 77  0  0  0  0  0  0  0  0999 V2000
   -6.4350    5.4694   -1.6561 C   0  0  0  0  0  0  0  0  0  0  0  0
   -6.6655    4.5460   -0.4811 C   0  0  0  0  0  0  0  0  0  0  0  0
   -5.9549    3.2117   -0.6969 C   0  0  0  0  0  0  0  0  0  0  0  0
   -6.2200    2.3351    0.5037 C   0  0  0  0  0  0  0  0  0  0  0  0
   -5.6056    1.0383    0.4191 N   0  0  0  0  0  0  0  0  0  0  0  0
   -4.2068    0.8030    0.3834 C   0  0  0  0  0  0  0  0  0  0  0  0
   -3.3146    1.7994    0.4325 N   0  0  0  0  0  0  0  0  0  0  0  0
   -1.9885    1.6012    0.3996 C   0  0  0  0  0  0  0  0  0  0  0  0
   -1.4514    0.3069    0.3109 C   0  0  0  0  0  0  0  0  0  0  0  0
   -2.3618   -0.7105    0.2617 C   0  0  0  0  0  0  0  0  0  0  0  0
   -1.9540   -2.0558    0.1963 N   0  0  0  0  0  0  0  0  0  0  0  0
   -2.8606   -3.1759    0.1396 C   0  0  1  0  0  0  0  0  0  0  0  0
   -3.6073   -3.3039    1.4206 C   0  0  0  0  0  0  0  0  0  0  0  0
   -4.2873   -4.6792    1.3814 C   0  0  0  0  0  0  0  0  0  0  0  0
   -5.2433   -4.6647    0.1814 C   0  0  2  0  0  0  0  0  0  0  0  0
   -6.0364   -5.8077    0.1938 O   0  0  0  0  0  0  0  0  0  0  0  0
   -4.4055   -4.5727   -1.0742 C   0  0  0  0  0  0  0  0  0  0  0  0
   -3.7661   -3.1736   -1.0694 C   0  0  0  0  0  0  0  0  0  0  0  0
   -3.7085   -0.4302    0.2988 N   0  0  0  0  0  0  0  0  0  0  0  0
    0.0044    0.1736    0.3139 C   0  0  0  0  0  0  0  0  0  0  0  0
    0.7585    1.2118    0.8707 C   0  0  0  0  0  0  0  0  0  0  0  0
    2.1519    1.1830    0.9620 C   0  0  0  0  0  0  0  0  0  0  0  0
    2.8212    0.0894    0.4867 C   0  0  0  0  0  0  0  0  0  0  0  0
    4.2132   -0.0300    0.5298 N   0  0  0  0  0  0  0  0  0  0  0  0
    5.1458    0.8962    0.9774 C   0  0  0  0  0  0  0  0  0  0  0  0
    4.9307    2.0313    1.4343 O   0  0  0  0  0  0  0  0  0  0  0  0
    6.6024    0.5120    0.9158 C   0  0  0  0  0  0  0  0  0  0  0  0
    6.8928    0.2442   -0.5574 C   0  0  0  0  0  0  0  0  0  0  0  0
    8.2649   -0.3532   -0.6421 C   0  0  0  0  0  0  0  0  0  0  0  0
    9.2278    0.4546    0.0337 N   0  0  0  0  0  0  0  0  0  0  0  0
   10.3585    0.6706   -0.8381 C   0  0  0  0  0  0  0  0  0  0  0  0
    8.7437    1.7280    0.4778 C   0  0  0  0  0  0  0  0  0  0  0  0
    7.5134    1.6124    1.3523 C   0  0  0  0  0  0  0  0  0  0  0  0
    2.0323   -0.9452   -0.0700 C   0  0  0  0  0  0  0  0  0  0  0  0
    0.7049   -0.8563   -0.1278 N   0  0  0  0  0  0  0  0  0  0  0  0
   -6.6814    6.4940   -1.3632 H   0  0  0  0  0  0  0  0  0  0  0  0
   -7.1042    5.1350   -2.4768 H   0  0  0  0  0  0  0  0  0  0  0  0
   -5.3905    5.3437   -2.0076 H   0  0  0  0  0  0  0  0  0  0  0  0
   -6.2768    5.0079    0.4487 H   0  0  0  0  0  0  0  0  0  0  0  0
   -7.7423    4.3697   -0.3203 H   0  0  0  0  0  0  0  0  0  0  0  0
   -4.8723    3.4220   -0.7516 H   0  0  0  0  0  0  0  0  0  0  0  0
   -6.3184    2.7518   -1.6405 H   0  0  0  0  0  0  0  0  0  0  0  0
   -5.7420    2.8761    1.3767 H   0  0  0  0  0  0  0  0  0  0  0  0
   -7.3145    2.2286    0.6798 H   0  0  0  0  0  0  0  0  0  0  0  0
   -6.2327    0.1995    0.3801 H   0  0  0  0  0  0  0  0  0  0  0  0
   -1.3018    2.4547    0.4211 H   0  0  0  0  0  0  0  0  0  0  0  0
   -0.9592   -2.3028    0.1995 H   0  0  0  0  0  0  0  0  0  0  0  0
   -2.2471   -4.1090    0.0358 H   0  0  0  0  0  0  0  0  0  0  0  0
   -4.3366   -2.5108    1.5396 H   0  0  0  0  0  0  0  0  0  0  0  0
   -2.8675   -3.3713    2.2450 H   0  0  0  0  0  0  0  0  0  0  0  0
   -3.4846   -5.4149    1.2245 H   0  0  0  0  0  0  0  0  0  0  0  0
   -4.8285   -4.8472    2.3238 H   0  0  0  0  0  0  0  0  0  0  0  0
   -5.8476   -3.7292    0.2712 H   0  0  0  0  0  0  0  0  0  0  0  0
   -5.9374   -6.3138    1.0426 H   0  0  0  0  0  0  0  0  0  0  0  0
   -5.0702   -4.6940   -1.9427 H   0  0  0  0  0  0  0  0  0  0  0  0
   -3.6186   -5.3533   -1.0746 H   0  0  0  0  0  0  0  0  0  0  0  0
   -4.5977   -2.4726   -1.0148 H   0  0  0  0  0  0  0  0  0  0  0  0
   -3.1445   -3.1098   -1.9658 H   0  0  0  0  0  0  0  0  0  0  0  0
    0.2783    2.0869    1.2773 H   0  0  0  0  0  0  0  0  0  0  0  0
    2.6589    2.0500    1.4196 H   0  0  0  0  0  0  0  0  0  0  0  0
    4.6023   -0.9600    0.1704 H   0  0  0  0  0  0  0  0  0  0  0  0
    6.8044   -0.3878    1.5130 H   0  0  0  0  0  0  0  0  0  0  0  0
    6.9300    1.2528   -1.0388 H   0  0  0  0  0  0  0  0  0  0  0  0
    6.1228   -0.3516   -1.0440 H   0  0  0  0  0  0  0  0  0  0  0  0
    8.2214   -1.3395   -0.0937 H   0  0  0  0  0  0  0  0  0  0  0  0
    8.5513   -0.6172   -1.6831 H   0  0  0  0  0  0  0  0  0  0  0  0
    9.9817    0.6995   -1.8875 H   0  0  0  0  0  0  0  0  0  0  0  0
   10.9211    1.5871   -0.5802 H   0  0  0  0  0  0  0  0  0  0  0  0
   11.0614   -0.2027   -0.8090 H   0  0  0  0  0  0  0  0  0  0  0  0
    8.5693    2.4456   -0.3736 H   0  0  0  0  0  0  0  0  0  0  0  0
    9.5398    2.1945    1.0952 H   0  0  0  0  0  0  0  0  0  0  0  0
    7.8343    1.5325    2.4129 H   0  0  0  0  0  0  0  0  0  0  0  0
    6.9884    2.6094    1.2750 H   0  0  0  0  0  0  0  0  0  0  0  0
    2.5578   -1.8130   -0.4472 H   0  0  0  0  0  0  0  0  0  0  0  0
  1  2  1  0
  2  3  1  0
  3  4  1  0
  4  5  1  0
  5  6  1  0
  6  7  2  0
  7  8  1  0
  8  9  2  0
  9 10  1  0
 10 11  1  0
 11 12  1  0
 12 13  1  0
 13 14  1  0
 14 15  1  0
 15 16  1  0
 15 17  1  0
 17 18  1  0
 10 19  2  0
  9 20  1  0
 20 21  2  0
 21 22  1  0
 22 23  2  0
 23 24  1  0
 24 25  1  0
 25 26  2  0
 25 27  1  0
 27 28  1  0
 28 29  1  0
 29 30  1  0
 30 31  1  0
 30 32  1  0
 32 33  1  0
 23 34  1  0
 34 35  2  0
 19  6  1  0
 35 20  1  0
 18 12  1  0
 33 27  1  0
  1 36  1  0
  1 37  1  0
  1 38  1  0
  2 39  1  0
  2 40  1  0
  3 41  1  0
  3 42  1  0
  4 43  1  0
  4 44  1  0
  5 45  1  0
  8 46  1  0
 11 47  1  0
 12 48  1  6
 13 49  1  0
 13 50  1  0
 14 51  1  0
 14 52  1  0
 15 53  1  1
 16 54  1  0
 17 55  1  0
 17 56  1  0
 18 57  1  0
 18 58  1  0
 21 59  1  0
 22 60  1  0
 24 61  1  0
 27 62  1  0
 28 63  1  0
 28 64  1  0
 29 65  1  0
 29 66  1  0
 31 67  1  0
 31 68  1  0
 31 69  1  0
 32 70  1  0
 32 71  1  0
 33 72  1  0
 33 73  1  0
 34 74  1  0
M  END
$$$$
[H]O[C@]1([H])C([H])([H])C([H])([H])[C@@]([H])(N([H])c2nc(N([H])C([H])([H])C([H])([H])C([H])([H])C([H])([H])[H])nc([H])c2C(=O)N([H])C2([H])C([H])([H])C([H])([H])C([H])([H])C([H])([H])C2([H])[H])C([H])([H])C1([H])[H]
     RDKit          3D

 63 65  0  0  0  0  0  0  0  0999 V2000
    6.9808   -0.3615   -2.8599 C   0  0  0  0  0  0  0  0  0  0  0  0
    5.4871   -0.5467   -2.6199 C   0  0  0  0  0  0  0  0  0  0  0  0
    5.2458   -1.7410   -1.7374 C   0  0  0  0  0  0  0  0  0  0  0  0
    3.7783   -1.9160   -1.5082 C   0  0  0  0  0  0  0  0  0  0  0  0
    3.2360   -0.7391   -0.8634 N   0  0  0  0  0  0  0  0  0  0  0  0
    1.8215   -0.7360   -0.5714 C   0  0  0  0  0  0  0  0  0  0  0  0
    1.0507   -1.7673   -0.8788 N   0  0  0  0  0  0  0  0  0  0  0  0
   -0.2435   -1.7755   -0.6187 C   0  0  0  0  0  0  0  0  0  0  0  0
   -0.8435   -0.6627    0.0047 C   0  0  0  0  0  0  0  0  0  0  0  0
   -2.2580   -0.6740    0.2919 C   0  0  0  0  0  0  0  0  0  0  0  0
   -2.8624    0.2608    0.8425 O   0  0  0  0  0  0  0  0  0  0  0  0
   -3.1030   -1.7925   -0.0429 N   0  0  0  0  0  0  0  0  0  0  0  0
   -4.5244   -1.7563    0.2669 C   0  0  0  0  0  0  0  0  0  0  0  0
   -5.3790   -1.8741   -0.9480 C   0  0  0  0  0  0  0  0  0  0  0  0
   -6.8218   -2.1041   -0.6632 C   0  0  0  0  0  0  0  0  0  0  0  0
   -7.0568   -3.1401    0.4144 C   0  0  0  0  0  0  0  0  0  0  0  0
   -6.2847   -2.7350    1.6419 C   0  0  0  0  0  0  0  0  0  0  0  0
   -4.8124   -2.8326    1.2919 C   0  0  0  0  0  0  0  0  0  0  0  0
   -0.0542    0.3999    0.3223 C   0  0  0  0  0  0  0  0  0  0  0  0
   -0.4815    1.5930    0.9351 N   0  0  0  0  0  0  0  0  0  0  0  0
    0.4423    2.6800    1.2472 C   0  0  1  0  0  0  0  0  0  0  0  0
    1.5132    2.2911    2.2340 C   0  0  0  0  0  0  0  0  0  0  0  0
    2.0343    3.6258    2.8029 C   0  0  0  0  0  0  0  0  0  0  0  0
    2.6155    4.3899    1.6556 C   0  0  2  0  0  0  0  0  0  0  0  0
    1.9241    5.6090    1.4734 O   0  0  0  0  0  0  0  0  0  0  0  0
    2.5167    3.6624    0.3241 C   0  0  0  0  0  0  0  0  0  0  0  0
    1.0612    3.3104    0.0354 C   0  0  0  0  0  0  0  0  0  0  0  0
    1.2763    0.3190    0.0148 N   0  0  0  0  0  0  0  0  0  0  0  0
    7.2238    0.7126   -2.8681 H   0  0  0  0  0  0  0  0  0  0  0  0
    7.2738   -0.8755   -3.8046 H   0  0  0  0  0  0  0  0  0  0  0  0
    7.5118   -0.8814   -2.0400 H   0  0  0  0  0  0  0  0  0  0  0  0
    5.1237    0.3598   -2.1357 H   0  0  0  0  0  0  0  0  0  0  0  0
    5.0165   -0.6470   -3.6078 H   0  0  0  0  0  0  0  0  0  0  0  0
    5.6570   -2.6618   -2.2269 H   0  0  0  0  0  0  0  0  0  0  0  0
    5.7434   -1.5684   -0.7641 H   0  0  0  0  0  0  0  0  0  0  0  0
    3.2822   -1.9915   -2.5032 H   0  0  0  0  0  0  0  0  0  0  0  0
    3.5251   -2.7898   -0.9005 H   0  0  0  0  0  0  0  0  0  0  0  0
    3.8128    0.0859   -0.6071 H   0  0  0  0  0  0  0  0  0  0  0  0
   -0.8929   -2.6035   -0.8591 H   0  0  0  0  0  0  0  0  0  0  0  0
   -2.7607   -2.6564   -0.5068 H   0  0  0  0  0  0  0  0  0  0  0  0
   -4.7257   -0.7812    0.7513 H   0  0  0  0  0  0  0  0  0  0  0  0
   -5.0250   -2.6813   -1.6253 H   0  0  0  0  0  0  0  0  0  0  0  0
   -5.2844   -0.9340   -1.5405 H   0  0  0  0  0  0  0  0  0  0  0  0
   -7.3937   -2.3268   -1.5862 H   0  0  0  0  0  0  0  0  0  0  0  0
   -7.2537   -1.1461   -0.2625 H   0  0  0  0  0  0  0  0  0  0  0  0
   -6.5863   -4.0949    0.0364 H   0  0  0  0  0  0  0  0  0  0  0  0
   -8.1211   -3.2705    0.6240 H   0  0  0  0  0  0  0  0  0  0  0  0
   -6.5248   -1.6884    1.9283 H   0  0  0  0  0  0  0  0  0  0  0  0
   -6.5241   -3.4217    2.4959 H   0  0  0  0  0  0  0  0  0  0  0  0
   -4.6001   -3.8296    0.8438 H   0  0  0  0  0  0  0  0  0  0  0  0
   -4.2098   -2.7195    2.2009 H   0  0  0  0  0  0  0  0  0  0  0  0
   -1.4666    1.7652    1.1944 H   0  0  0  0  0  0  0  0  0  0  0  0
   -0.1218    3.5227    1.7577 H   0  0  0  0  0  0  0  0  0  0  0  0
    2.3327    1.6977    1.8377 H   0  0  0  0  0  0  0  0  0  0  0  0
    1.0388    1.7347    3.0768 H   0  0  0  0  0  0  0  0  0  0  0  0
    2.7498    3.4436    3.6286 H   0  0  0  0  0  0  0  0  0  0  0  0
    1.1324    4.1567    3.1710 H   0  0  0  0  0  0  0  0  0  0  0  0
    3.6889    4.5763    1.8585 H   0  0  0  0  0  0  0  0  0  0  0  0
    2.5215    6.3328    1.2207 H   0  0  0  0  0  0  0  0  0  0  0  0
    3.1830    2.7992    0.2750 H   0  0  0  0  0  0  0  0  0  0  0  0
    2.8216    4.3921   -0.4557 H   0  0  0  0  0  0  0  0  0  0  0  0
    0.5808    4.2959   -0.2276 H   0  0  0  0  0  0  0  0  0  0  0  0
    1.0125    2.7077   -0.8666 H   0  0  0  0  0  0  0  0  0  0  0  0
  1  2  1  0
  2  3  1  0
  3  4  1  0
  4  5  1  0
  5  6  1  0
  6  7  2  0
  7  8  1  0
  8  9  2  0
  9 10  1  0
 10 11  2  0
 10 12  1  0
 12 13  1  0
 13 14  1  0
 14 15  1  0
 15 16  1  0
 16 17  1  0
 17 18  1  0
  9 19  1  0
 19 20  1  0
 20 21  1  0
 21 22  1  0
 22 23  1  0
 23 24  1  0
 24 25  1  0
 24 26  1  0
 26 27  1  0
 19 28  2  0
 28  6  1  0
 18 13  1  0
 27 21  1  0
  1 29  1  0
  1 30  1  0
  1 31  1  0
  2 32  1  0
  2 33  1  0
  3 34  1  0
  3 35  1  0
  4 36  1  0
  4 37  1  0
  5 38  1  0
  8 39  1  0
 12 40  1  0
 13 41  1  0
 14 42  1  0
 14 43  1  0
 15 44  1  0
 15 45  1  0
 16 46  1  0
 16 47  1  0
 17 48  1  0
 17 49  1  0
 18 50  1  0
 18 51  1  0
 20 52  1  0
 21 53  1  1
 22 54  1  0
 22 55  1  0
 23 56  1  0
 23 57  1  0
 24 58  1  1
 25 59  1  0
 26 60  1  0
 26 61  1  0
 27 62  1  0
 27 63  1  0
M  END
$$$$
[H]O[C@]1([H])C([H])([H])C([H])([H])[C@@]([H])(N([H])c2nc(N([H])C([H])([H])C([H])([H])C([H])([H])C([H])([H])[H])nc([H])c2C(=O)N([H])C([H])([H])c2c([H])nc(-c3oc([H])c([H])c3[H])c([H])c2[H])C([H])([H])C1([H])[H]
     RDKit          3D

 66 69  0  0  0  0  0  0  0  0999 V2000
   -5.6958   -5.9920   -0.0302 C   0  0  0  0  0  0  0  0  0  0  0  0
   -4.4660   -5.1999    0.2728 C   0  0  0  0  0  0  0  0  0  0  0  0
   -4.6619   -3.7210   -0.0839 C   0  0  0  0  0  0  0  0  0  0  0  0
   -3.3996   -2.9727    0.2357 C   0  0  0  0  0  0  0  0  0  0  0  0
   -3.4325   -1.5711   -0.0598 N   0  0  0  0  0  0  0  0  0  0  0  0
   -2.2666   -0.7906    0.1708 C   0  0  0  0  0  0  0  0  0  0  0  0
   -1.1572   -1.3618    0.6873 N   0  0  0  0  0  0  0  0  0  0  0  0
   -0.0172   -0.7181    0.9000 C   0  0  0  0  0  0  0  0  0  0  0  0
    0.0355    0.6722    0.5587 C   0  0  0  0  0  0  0  0  0  0  0  0
    1.3211    1.3189    0.6938 C   0  0  0  0  0  0  0  0  0  0  0  0
    1.6097    2.3783    0.1176 O   0  0  0  0  0  0  0  0  0  0  0  0
    2.3442    0.7737    1.5325 N   0  0  0  0  0  0  0  0  0  0  0  0
    3.6211    1.4286    1.6466 C   0  0  0  0  0  0  0  0  0  0  0  0
    4.7261    0.7146    1.0164 C   0  0  0  0  0  0  0  0  0  0  0  0
    4.6071   -0.2111    0.0388 C   0  0  0  0  0  0  0  0  0  0  0  0
    5.7261   -0.9433   -0.4071 C   0  0  0  0  0  0  0  0  0  0  0  0
    6.9309   -0.6734    0.1896 C   0  0  0  0  0  0  0  0  0  0  0  0
    7.0604    0.2574    1.1679 N   0  0  0  0  0  0  0  0  0  0  0  0
    5.9806    0.9253    1.5623 C   0  0  0  0  0  0  0  0  0  0  0  0
    8.1181   -1.4362   -0.1648 C   0  0  0  0  0  0  0  0  0  0  0  0
    9.3896   -1.2049    0.3477 C   0  0  0  0  0  0  0  0  0  0  0  0
   10.2276   -2.1217   -0.2201 C   0  0  0  0  0  0  0  0  0  0  0  0
    9.4318   -2.8886   -1.0685 C   0  0  0  0  0  0  0  0  0  0  0  0
    8.1966   -2.4403   -0.9965 O   0  0  0  0  0  0  0  0  0  0  0  0
   -1.0599    1.2759    0.0417 C   0  0  0  0  0  0  0  0  0  0  0  0
   -1.1187    2.6428   -0.3019 N   0  0  0  0  0  0  0  0  0  0  0  0
   -2.3478    3.3072   -0.7160 C   0  0  1  0  0  0  0  0  0  0  0  0
   -2.9852    2.8551   -1.9666 C   0  0  0  0  0  0  0  0  0  0  0  0
   -4.5041    2.9835   -1.9279 C   0  0  0  0  0  0  0  0  0  0  0  0
   -4.8289    4.2933   -1.2314 C   0  0  2  0  0  0  0  0  0  0  0  0
   -4.1730    5.3562   -1.7935 O   0  0  0  0  0  0  0  0  0  0  0  0
   -4.5299    4.1199    0.2333 C   0  0  0  0  0  0  0  0  0  0  0  0
   -3.3065    3.2900    0.4653 C   0  0  0  0  0  0  0  0  0  0  0  0
   -2.1881    0.5047   -0.1361 N   0  0  0  0  0  0  0  0  0  0  0  0
   -6.5695   -5.3176   -0.0328 H   0  0  0  0  0  0  0  0  0  0  0  0
   -5.6261   -6.4823   -1.0471 H   0  0  0  0  0  0  0  0  0  0  0  0
   -5.9201   -6.7925    0.6964 H   0  0  0  0  0  0  0  0  0  0  0  0
   -4.1511   -5.3024    1.3196 H   0  0  0  0  0  0  0  0  0  0  0  0
   -3.6238   -5.5822   -0.3713 H   0  0  0  0  0  0  0  0  0  0  0  0
   -5.5550   -3.3410    0.4043 H   0  0  0  0  0  0  0  0  0  0  0  0
   -4.8001   -3.6843   -1.1809 H   0  0  0  0  0  0  0  0  0  0  0  0
   -3.2064   -3.0888    1.3395 H   0  0  0  0  0  0  0  0  0  0  0  0
   -2.5044   -3.4593   -0.2447 H   0  0  0  0  0  0  0  0  0  0  0  0
   -4.2848   -1.1306   -0.4295 H   0  0  0  0  0  0  0  0  0  0  0  0
    0.8577   -1.2083    1.3034 H   0  0  0  0  0  0  0  0  0  0  0  0
    2.1482   -0.0995    2.0631 H   0  0  0  0  0  0  0  0  0  0  0  0
    3.5293    2.4708    1.1642 H   0  0  0  0  0  0  0  0  0  0  0  0
    3.8379    1.6741    2.7114 H   0  0  0  0  0  0  0  0  0  0  0  0
    3.6531   -0.4391   -0.4467 H   0  0  0  0  0  0  0  0  0  0  0  0
    5.6701   -1.6818   -1.1764 H   0  0  0  0  0  0  0  0  0  0  0  0
    6.1284    1.6711    2.3607 H   0  0  0  0  0  0  0  0  0  0  0  0
    9.6677   -0.4316    1.0749 H   0  0  0  0  0  0  0  0  0  0  0  0
   11.2749   -2.2520   -0.0729 H   0  0  0  0  0  0  0  0  0  0  0  0
    9.8238   -3.7019   -1.6587 H   0  0  0  0  0  0  0  0  0  0  0  0
   -0.2633    3.2157   -0.2749 H   0  0  0  0  0  0  0  0  0  0  0  0
   -2.1209    4.4136   -0.8286 H   0  0  0  0  0  0  0  0  0  0  0  0
   -2.6662    1.8345   -2.2242 H   0  0  0  0  0  0  0  0  0  0  0  0
   -2.6667    3.5597   -2.8026 H   0  0  0  0  0  0  0  0  0  0  0  0
   -4.9069    2.1657   -1.2948 H   0  0  0  0  0  0  0  0  0  0  0  0
   -4.8570    2.9701   -2.9673 H   0  0  0  0  0  0  0  0  0  0  0  0
   -5.9241    4.5186   -1.3062 H   0  0  0  0  0  0  0  0  0  0  0  0
   -3.9182    6.0579   -1.1360 H   0  0  0  0  0  0  0  0  0  0  0  0
   -5.4062    3.5986    0.6877 H   0  0  0  0  0  0  0  0  0  0  0  0
   -4.3711    5.1215    0.6733 H   0  0  0  0  0  0  0  0  0  0  0  0
   -3.6316    2.2537    0.6408 H   0  0  0  0  0  0  0  0  0  0  0  0
   -2.8050    3.6186    1.3971 H   0  0  0  0  0  0  0  0  0  0  0  0
  1  2  1  0
  2  3  1  0
  3  4  1  0
  4  5  1  0
  5  6  1  0
  6  7  2  0
  7  8  1  0
  8  9  2  0
  9 10  1  0
 10 11  2  0
 10 12  1  0
 12 13  1  0
 13 14  1  0
 14 15  2  0
 15 16  1  0
 16 17  2  0
 17 18  1  0
 18 19  2  0
 17 20  1  0
 20 21  2  0
 21 22  1  0
 22 23  2  0
 23 24  1  0
  9 25  1  0
 25 26  1  0
 26 27  1  0
 27 28  1  0
 28 29  1  0
 29 30  1  0
 30 31  1  0
 30 32  1  0
 32 33  1  0
 25 34  2  0
 34  6  1  0
 19 14  1  0
 24 20  1  0
 33 27  1  0
  1 35  1  0
  1 36  1  0
  1 37  1  0
  2 38  1  0
  2 39  1  0
  3 40  1  0
  3 41  1  0
  4 42  1  0
  4 43  1  0
  5 44  1  0
  8 45  1  0
 12 46  1  0
 13 47  1  0
 13 48  1  0
 15 49  1  0
 16 50  1  0
 19 51  1  0
 21 52  1  0
 22 53  1  0
 23 54  1  0
 26 55  1  0
 27 56  1  6
 28 57  1  0
 28 58  1  0
 29 59  1  0
 29 60  1  0
 30 61  1  1
 31 62  1  0
 32 63  1  0
 32 64  1  0
 33 65  1  0
 33 66  1  0
M  END
$$$$
[H]OC1([H])C([H])([H])C([H])([H])C([H])(N([H])c2nc(N([H])C([H])([H])C([H])([H])C([H])([H])C([H])([H])[H])nc([H])c2-c2oc(C([H])([H])N3C([H])([H])C([H])([H])C(F)(F)C([H])([H])C3([H])[H])c([H])c2[H])C([H])([H])C1([H])[H]
     RDKit          3D

 68 71  0  0  0  0  0  0  0  0999 V2000
   -6.0723    2.9066   -0.4181 C   0  0  0  0  0  0  0  0  0  0  0  0
   -5.6040    3.3069   -1.7964 C   0  0  0  0  0  0  0  0  0  0  0  0
   -5.2106    2.0976   -2.6177 C   0  0  0  0  0  0  0  0  0  0  0  0
   -4.0834    1.3295   -1.9540 C   0  0  0  0  0  0  0  0  0  0  0  0
   -2.9074    2.1279   -1.7884 N   0  0  0  0  0  0  0  0  0  0  0  0
   -1.7541    1.5767   -1.1854 C   0  0  0  0  0  0  0  0  0  0  0  0
   -0.6446    2.3140   -1.0241 N   0  0  0  0  0  0  0  0  0  0  0  0
    0.3997    1.7322   -0.4532 C   0  0  0  0  0  0  0  0  0  0  0  0
    0.4285    0.3900   -0.0021 C   0  0  0  0  0  0  0  0  0  0  0  0
    1.6670   -0.0864    0.6122 C   0  0  0  0  0  0  0  0  0  0  0  0
    2.2160   -1.3107    0.7628 C   0  0  0  0  0  0  0  0  0  0  0  0
    3.4304   -1.1252    1.4294 C   0  0  0  0  0  0  0  0  0  0  0  0
    3.5666    0.2219    1.6549 C   0  0  0  0  0  0  0  0  0  0  0  0
    4.7447    0.8578    2.3525 C   0  0  0  0  0  0  0  0  0  0  0  0
    5.7791    1.2144    1.4451 N   0  0  0  0  0  0  0  0  0  0  0  0
    5.4155    2.1449    0.4306 C   0  0  0  0  0  0  0  0  0  0  0  0
    6.6887    2.6790   -0.1939 C   0  0  0  0  0  0  0  0  0  0  0  0
    7.5926    1.5869   -0.6929 C   0  0  0  0  0  0  0  0  0  0  0  0
    7.0646    0.8972   -1.7471 F   0  0  0  0  0  0  0  0  0  0  0  0
    8.7755    2.1594   -1.0820 F   0  0  0  0  0  0  0  0  0  0  0  0
    7.8832    0.6458    0.4829 C   0  0  0  0  0  0  0  0  0  0  0  0
    6.5196    0.1081    0.9151 C   0  0  0  0  0  0  0  0  0  0  0  0
    2.5234    0.7869    1.1653 O   0  0  0  0  0  0  0  0  0  0  0  0
   -0.7056   -0.3058   -0.1808 C   0  0  0  0  0  0  0  0  0  0  0  0
   -0.8828   -1.6171    0.3082 N   0  0  0  0  0  0  0  0  0  0  0  0
   -2.0990   -2.3785    0.0700 C   0  0  0  0  0  0  0  0  0  0  0  0
   -3.2609   -1.8212    0.8368 C   0  0  0  0  0  0  0  0  0  0  0  0
   -4.5133   -2.5392    0.3649 C   0  0  0  0  0  0  0  0  0  0  0  0
   -4.4020   -4.0241    0.4910 C   0  0  0  0  0  0  0  0  0  0  0  0
   -4.6481   -4.4681    1.7967 O   0  0  0  0  0  0  0  0  0  0  0  0
   -3.1088   -4.5891   -0.0122 C   0  0  0  0  0  0  0  0  0  0  0  0
   -1.9104   -3.8058    0.4825 C   0  0  0  0  0  0  0  0  0  0  0  0
   -1.7733    0.3086   -0.7734 N   0  0  0  0  0  0  0  0  0  0  0  0
   -5.2541    3.0928    0.3234 H   0  0  0  0  0  0  0  0  0  0  0  0
   -6.9859    3.4591   -0.1070 H   0  0  0  0  0  0  0  0  0  0  0  0
   -6.2786    1.8216   -0.3916 H   0  0  0  0  0  0  0  0  0  0  0  0
   -6.5008    3.7462   -2.3139 H   0  0  0  0  0  0  0  0  0  0  0  0
   -4.8354    4.0918   -1.7828 H   0  0  0  0  0  0  0  0  0  0  0  0
   -6.1071    1.4553   -2.6947 H   0  0  0  0  0  0  0  0  0  0  0  0
   -4.8999    2.3951   -3.6273 H   0  0  0  0  0  0  0  0  0  0  0  0
   -3.8804    0.3808   -2.4654 H   0  0  0  0  0  0  0  0  0  0  0  0
   -4.4466    1.0618   -0.9206 H   0  0  0  0  0  0  0  0  0  0  0  0
   -2.8779    3.1169   -2.1042 H   0  0  0  0  0  0  0  0  0  0  0  0
    1.2974    2.3274   -0.3250 H   0  0  0  0  0  0  0  0  0  0  0  0
    1.8679   -2.2749    0.4321 H   0  0  0  0  0  0  0  0  0  0  0  0
    4.1025   -1.9101    1.6975 H   0  0  0  0  0  0  0  0  0  0  0  0
    4.3981    1.7743    2.8793 H   0  0  0  0  0  0  0  0  0  0  0  0
    5.1268    0.1651    3.1029 H   0  0  0  0  0  0  0  0  0  0  0  0
    4.8124    1.7064   -0.3921 H   0  0  0  0  0  0  0  0  0  0  0  0
    4.8705    3.0093    0.8390 H   0  0  0  0  0  0  0  0  0  0  0  0
    6.3916    3.2883   -1.0688 H   0  0  0  0  0  0  0  0  0  0  0  0
    7.2627    3.2983    0.5349 H   0  0  0  0  0  0  0  0  0  0  0  0
    8.5703   -0.1628    0.1981 H   0  0  0  0  0  0  0  0  0  0  0  0
    8.3043    1.3163    1.2803 H   0  0  0  0  0  0  0  0  0  0  0  0
    6.7262   -0.6606    1.6775 H   0  0  0  0  0  0  0  0  0  0  0  0
    6.0398   -0.2999    0.0094 H   0  0  0  0  0  0  0  0  0  0  0  0
   -0.1740   -2.0670    0.8902 H   0  0  0  0  0  0  0  0  0  0  0  0
   -2.2788   -2.2992   -1.0287 H   0  0  0  0  0  0  0  0  0  0  0  0
   -3.1533   -2.1072    1.9124 H   0  0  0  0  0  0  0  0  0  0  0  0
   -3.4571   -0.7581    0.7309 H   0  0  0  0  0  0  0  0  0  0  0  0
   -5.3278   -2.2102    1.0656 H   0  0  0  0  0  0  0  0  0  0  0  0
   -4.7932   -2.2104   -0.6471 H   0  0  0  0  0  0  0  0  0  0  0  0
   -5.2206   -4.4688   -0.1384 H   0  0  0  0  0  0  0  0  0  0  0  0
   -5.4618   -5.0074    1.8745 H   0  0  0  0  0  0  0  0  0  0  0  0
   -3.0042   -5.6226    0.3797 H   0  0  0  0  0  0  0  0  0  0  0  0
   -3.0656   -4.6504   -1.1202 H   0  0  0  0  0  0  0  0  0  0  0  0
   -1.0120   -4.2754    0.0321 H   0  0  0  0  0  0  0  0  0  0  0  0
   -1.8697   -3.8426    1.5889 H   0  0  0  0  0  0  0  0  0  0  0  0
  1  2  1  0
  2  3  1  0
  3  4  1  0
  4  5  1  0
  5  6  1  0
  6  7  2  0
  7  8  1  0
  8  9  2  0
  9 10  1  0
 10 11  2  0
 11 12  1  0
 12 13  2  0
 13 14  1  0
 14 15  1  0
 15 16  1  0
 16 17  1  0
 17 18  1  0
 18 19  1  0
 18 20  1  0
 18 21  1  0
 21 22  1  0
 13 23  1  0
  9 24  1  0
 24 25  1  0
 25 26  1  0
 26 27  1  0
 27 28  1  0
 28 29  1  0
 29 30  1  0
 29 31  1  0
 31 32  1  0
 24 33  2  0
 33  6  1  0
 23 10  1  0
 32 26  1  0
 22 15  1  0
  1 34  1  0
  1 35  1  0
  1 36  1  0
  2 37  1  0
  2 38  1  0
  3 39  1  0
  3 40  1  0
  4 41  1  0
  4 42  1  0
  5 43  1  0
  8 44  1  0
 11 45  1  0
 12 46  1  0
 14 47  1  0
 14 48  1  0
 16 49  1  0
 16 50  1  0
 17 51  1  0
 17 52  1  0
 21 53  1  0
 21 54  1  0
 22 55  1  0
 22 56  1  0
 25 57  1  0
 26 58  1  0
 27 59  1  0
 27 60  1  0
 28 61  1  0
 28 62  1  0
 29 63  1  0
 30 64  1  0
 31 65  1  0
 31 66  1  0
 32 67  1  0
 32 68  1  0
M  END
$$$$
[H]O[C@]1([H])C([H])([H])C([H])([H])[C@@]([H])(N([H])c2nc(N([H])C([H])([H])C([H])([H])C([H])([H])C([H])([H])[H])nc([H])c2-c2nc([H])c(C([H])([H])N3C([H])([H])C([H])([H])N(C([H])([H])[H])C([H])([H])C3([H])[H])c([H])c2[H])C([H])([H])C1([H])[H]
     RDKit          3D

 72 75  0  0  0  0  0  0  0  0999 V2000
   -5.6045    4.1419    2.1366 C   0  0  0  0  0  0  0  0  0  0  0  0
   -5.7145    3.2375    0.9243 C   0  0  0  0  0  0  0  0  0  0  0  0
   -4.8190    3.7860   -0.1772 C   0  0  0  0  0  0  0  0  0  0  0  0
   -4.8950    2.9217   -1.4005 C   0  0  0  0  0  0  0  0  0  0  0  0
   -4.4966    1.5596   -1.2025 N   0  0  0  0  0  0  0  0  0  0  0  0
   -3.1655    1.1763   -0.8286 C   0  0  0  0  0  0  0  0  0  0  0  0
   -2.2619    2.1394   -0.6646 N   0  0  0  0  0  0  0  0  0  0  0  0
   -1.0076    1.8318   -0.3175 C   0  0  0  0  0  0  0  0  0  0  0  0
   -0.6485    0.4897   -0.1262 C   0  0  0  0  0  0  0  0  0  0  0  0
   -1.5679   -0.5087   -0.2900 C   0  0  0  0  0  0  0  0  0  0  0  0
   -1.3572   -1.8893   -0.0845 N   0  0  0  0  0  0  0  0  0  0  0  0
   -2.4156   -2.8535   -0.3180 C   0  0  1  0  0  0  0  0  0  0  0  0
   -3.6206   -2.6635    0.5690 C   0  0  0  0  0  0  0  0  0  0  0  0
   -4.3386   -4.0286    0.5334 C   0  0  0  0  0  0  0  0  0  0  0  0
   -4.8334   -4.2358   -0.8540 C   0  0  2  0  0  0  0  0  0  0  0  0
   -4.6977   -5.5973   -1.1699 O   0  0  0  0  0  0  0  0  0  0  0  0
   -4.2826   -3.3452   -1.9045 C   0  0  0  0  0  0  0  0  0  0  0  0
   -2.8205   -3.0027   -1.7488 C   0  0  0  0  0  0  0  0  0  0  0  0
   -2.8268   -0.0994   -0.6472 N   0  0  0  0  0  0  0  0  0  0  0  0
    0.7310    0.2265    0.2775 C   0  0  0  0  0  0  0  0  0  0  0  0
    1.4157    1.2541    0.9216 C   0  0  0  0  0  0  0  0  0  0  0  0
    2.7017    1.0247    1.3408 C   0  0  0  0  0  0  0  0  0  0  0  0
    3.2811   -0.2018    1.1194 C   0  0  0  0  0  0  0  0  0  0  0  0
    4.6723   -0.5021    1.5533 C   0  0  0  0  0  0  0  0  0  0  0  0
    5.5467   -0.3993    0.4261 N   0  0  0  0  0  0  0  0  0  0  0  0
    5.5848    0.8888   -0.2021 C   0  0  0  0  0  0  0  0  0  0  0  0
    6.4686    0.7010   -1.4454 C   0  0  0  0  0  0  0  0  0  0  0  0
    7.8177    0.6414   -0.9661 N   0  0  0  0  0  0  0  0  0  0  0  0
    8.2810    2.0274   -0.8203 C   0  0  0  0  0  0  0  0  0  0  0  0
    8.0032   -0.1116    0.2294 C   0  0  0  0  0  0  0  0  0  0  0  0
    6.8436   -0.9169    0.6883 C   0  0  0  0  0  0  0  0  0  0  0  0
    2.5907   -1.1984    0.4853 C   0  0  0  0  0  0  0  0  0  0  0  0
    1.3506   -0.9410    0.0938 N   0  0  0  0  0  0  0  0  0  0  0  0
   -6.0111    3.6445    3.0383 H   0  0  0  0  0  0  0  0  0  0  0  0
   -4.5832    4.4739    2.3409 H   0  0  0  0  0  0  0  0  0  0  0  0
   -6.2522    5.0432    1.9745 H   0  0  0  0  0  0  0  0  0  0  0  0
   -5.3834    2.2101    1.1500 H   0  0  0  0  0  0  0  0  0  0  0  0
   -6.7520    3.2808    0.5362 H   0  0  0  0  0  0  0  0  0  0  0  0
   -5.2327    4.8155   -0.3927 H   0  0  0  0  0  0  0  0  0  0  0  0
   -3.8294    3.9412    0.2370 H   0  0  0  0  0  0  0  0  0  0  0  0
   -4.1629    3.3567   -2.1458 H   0  0  0  0  0  0  0  0  0  0  0  0
   -5.8751    3.0098   -1.9084 H   0  0  0  0  0  0  0  0  0  0  0  0
   -5.2397    0.8278   -1.3458 H   0  0  0  0  0  0  0  0  0  0  0  0
   -0.3179    2.6452   -0.2154 H   0  0  0  0  0  0  0  0  0  0  0  0
   -0.4445   -2.2333    0.2541 H   0  0  0  0  0  0  0  0  0  0  0  0
   -2.0021   -3.8675   -0.0217 H   0  0  0  0  0  0  0  0  0  0  0  0
   -3.3401   -2.3801    1.5835 H   0  0  0  0  0  0  0  0  0  0  0  0
   -4.3446   -1.9736    0.0812 H   0  0  0  0  0  0  0  0  0  0  0  0
   -3.5283   -4.7714    0.7274 H   0  0  0  0  0  0  0  0  0  0  0  0
   -5.1417   -4.0703    1.2760 H   0  0  0  0  0  0  0  0  0  0  0  0
   -5.9508   -4.0664   -0.8298 H   0  0  0  0  0  0  0  0  0  0  0  0
   -3.7442   -5.8482   -1.2768 H   0  0  0  0  0  0  0  0  0  0  0  0
   -4.8496   -2.3803   -1.9984 H   0  0  0  0  0  0  0  0  0  0  0  0
   -4.3959   -3.8424   -2.8904 H   0  0  0  0  0  0  0  0  0  0  0  0
   -2.6350   -2.0629   -2.2989 H   0  0  0  0  0  0  0  0  0  0  0  0
   -2.2268   -3.7912   -2.2825 H   0  0  0  0  0  0  0  0  0  0  0  0
    0.9363    2.2096    1.1010 H   0  0  0  0  0  0  0  0  0  0  0  0
    3.2544    1.8181    1.8468 H   0  0  0  0  0  0  0  0  0  0  0  0
    4.6707   -1.5461    1.9148 H   0  0  0  0  0  0  0  0  0  0  0  0
    4.9796    0.1400    2.4070 H   0  0  0  0  0  0  0  0  0  0  0  0
    4.6178    1.3096   -0.4721 H   0  0  0  0  0  0  0  0  0  0  0  0
    6.1464    1.6392    0.4268 H   0  0  0  0  0  0  0  0  0  0  0  0
    6.3538    1.5204   -2.1578 H   0  0  0  0  0  0  0  0  0  0  0  0
    6.1674   -0.2733   -1.8802 H   0  0  0  0  0  0  0  0  0  0  0  0
    8.8952    2.2759   -1.6974 H   0  0  0  0  0  0  0  0  0  0  0  0
    8.8608    2.0511    0.1340 H   0  0  0  0  0  0  0  0  0  0  0  0
    7.4162    2.7259   -0.7693 H   0  0  0  0  0  0  0  0  0  0  0  0
    8.3245    0.5908    1.0277 H   0  0  0  0  0  0  0  0  0  0  0  0
    8.8703   -0.7968    0.0654 H   0  0  0  0  0  0  0  0  0  0  0  0
    6.8871   -1.9568    0.2792 H   0  0  0  0  0  0  0  0  0  0  0  0
    6.9252   -1.0595    1.8070 H   0  0  0  0  0  0  0  0  0  0  0  0
    3.0229   -2.1614    0.3029 H   0  0  0  0  0  0  0  0  0  0  0  0
  1  2  1  0
  2  3  1  0
  3  4  1  0
  4  5  1  0
  5  6  1  0
  6  7  2  0
  7  8  1  0
  8  9  2  0
  9 10  1  0
 10 11  1  0
 11 12  1  0
 12 13  1  0
 13 14  1  0
 14 15  1  0
 15 16  1  0
 15 17  1  0
 17 18  1  0
 10 19  2  0
  9 20  1  0
 20 21  2  0
 21 22  1  0
 22 23  2  0
 23 24  1  0
 24 25  1  0
 25 26  1  0
 26 27  1  0
 27 28  1  0
 28 29  1  0
 28 30  1  0
 30 31  1  0
 23 32  1  0
 32 33  2  0
 19  6  1  0
 33 20  1  0
 18 12  1  0
 31 25  1  0
  1 34  1  0
  1 35  1  0
  1 36  1  0
  2 37  1  0
  2 38  1  0
  3 39  1  0
  3 40  1  0
  4 41  1  0
  4 42  1  0
  5 43  1  0
  8 44  1  0
 11 45  1  0
 12 46  1  1
 13 47  1  0
 13 48  1  0
 14 49  1  0
 14 50  1  0
 15 51  1  1
 16 52  1  0
 17 53  1  0
 17 54  1  0
 18 55  1  0
 18 56  1  0
 21 57  1  0
 22 58  1  0
 24 59  1  0
 24 60  1  0
 26 61  1  0
 26 62  1  0
 27 63  1  0
 27 64  1  0
 29 65  1  0
 29 66  1  0
 29 67  1  0
 30 68  1  0
 30 69  1  0
 31 70  1  0
 31 71  1  0
 32 72  1  0
M  END
$$$$
[H]OC1([H])C([H])([H])C([H])([H])C([H])(N([H])c2nc(N([H])C([H])([H])C([H])([H])C([H])([H])C([H])([H])[H])nc([H])c2-c2nc([H])c(N([H])C(=O)C3([H])C([H])([H])C([H])([H])C3([H])[H])c([H])c2[H])C([H])([H])C1([H])[H]
     RDKit          3D

 66 69  0  0  0  0  0  0  0  0999 V2000
   -6.1531    4.9901    0.7026 C   0  0  0  0  0  0  0  0  0  0  0  0
   -4.6593    4.8555    0.7675 C   0  0  0  0  0  0  0  0  0  0  0  0
   -4.0276    4.7699   -0.6034 C   0  0  0  0  0  0  0  0  0  0  0  0
   -4.5093    3.6071   -1.3977 C   0  0  0  0  0  0  0  0  0  0  0  0
   -4.2731    2.3201   -0.8172 N   0  0  0  0  0  0  0  0  0  0  0  0
   -2.9776    1.7806   -0.5794 C   0  0  0  0  0  0  0  0  0  0  0  0
   -1.8973    2.4891   -0.9102 N   0  0  0  0  0  0  0  0  0  0  0  0
   -0.6411    2.0759   -0.7292 C   0  0  0  0  0  0  0  0  0  0  0  0
   -0.4053    0.8157   -0.1551 C   0  0  0  0  0  0  0  0  0  0  0  0
   -1.5087    0.0877    0.1836 C   0  0  0  0  0  0  0  0  0  0  0  0
   -1.3999   -1.2115    0.7324 N   0  0  0  0  0  0  0  0  0  0  0  0
   -2.6588   -1.9036    1.0810 C   0  0  0  0  0  0  0  0  0  0  0  0
   -3.5053   -2.0852   -0.1365 C   0  0  0  0  0  0  0  0  0  0  0  0
   -4.0352   -3.4995   -0.2641 C   0  0  0  0  0  0  0  0  0  0  0  0
   -2.9553   -4.5321   -0.1854 C   0  0  0  0  0  0  0  0  0  0  0  0
   -2.3135   -4.6368   -1.4333 O   0  0  0  0  0  0  0  0  0  0  0  0
   -1.9537   -4.2812    0.9050 C   0  0  0  0  0  0  0  0  0  0  0  0
   -2.3443   -3.1633    1.8186 C   0  0  0  0  0  0  0  0  0  0  0  0
   -2.7776    0.5879   -0.0360 N   0  0  0  0  0  0  0  0  0  0  0  0
    0.9724    0.3912    0.0065 C   0  0  0  0  0  0  0  0  0  0  0  0
    1.9976    1.0298   -0.6943 C   0  0  0  0  0  0  0  0  0  0  0  0
    3.3373    0.6306   -0.5827 C   0  0  0  0  0  0  0  0  0  0  0  0
    3.6793   -0.4010    0.2202 C   0  0  0  0  0  0  0  0  0  0  0  0
    4.9683   -0.8854    0.4389 N   0  0  0  0  0  0  0  0  0  0  0  0
    6.1510   -0.1941    0.1448 C   0  0  0  0  0  0  0  0  0  0  0  0
    6.1692    0.9322   -0.3388 O   0  0  0  0  0  0  0  0  0  0  0  0
    7.4913   -0.8230    0.4179 C   0  0  0  0  0  0  0  0  0  0  0  0
    8.6739    0.0446    0.0483 C   0  0  0  0  0  0  0  0  0  0  0  0
    9.3228   -1.2081   -0.5427 C   0  0  0  0  0  0  0  0  0  0  0  0
    7.9146   -1.7642   -0.7050 C   0  0  0  0  0  0  0  0  0  0  0  0
    2.6255   -1.0196    0.9078 C   0  0  0  0  0  0  0  0  0  0  0  0
    1.3710   -0.6088    0.7725 N   0  0  0  0  0  0  0  0  0  0  0  0
   -6.6670    4.5213    1.5831 H   0  0  0  0  0  0  0  0  0  0  0  0
   -6.6049    4.5192   -0.1885 H   0  0  0  0  0  0  0  0  0  0  0  0
   -6.3998    6.0735    0.6553 H   0  0  0  0  0  0  0  0  0  0  0  0
   -4.4113    3.9749    1.3737 H   0  0  0  0  0  0  0  0  0  0  0  0
   -4.2065    5.7434    1.2679 H   0  0  0  0  0  0  0  0  0  0  0  0
   -4.3454    5.6959   -1.1391 H   0  0  0  0  0  0  0  0  0  0  0  0
   -2.9449    4.7761   -0.5175 H   0  0  0  0  0  0  0  0  0  0  0  0
   -3.9140    3.6187   -2.3609 H   0  0  0  0  0  0  0  0  0  0  0  0
   -5.5633    3.7267   -1.7543 H   0  0  0  0  0  0  0  0  0  0  0  0
   -5.1015    1.7356   -0.5493 H   0  0  0  0  0  0  0  0  0  0  0  0
    0.2048    2.7149   -1.0131 H   0  0  0  0  0  0  0  0  0  0  0  0
   -0.5301   -1.7023    0.8912 H   0  0  0  0  0  0  0  0  0  0  0  0
   -3.1916   -1.2254    1.8018 H   0  0  0  0  0  0  0  0  0  0  0  0
   -2.9428   -1.7863   -1.0534 H   0  0  0  0  0  0  0  0  0  0  0  0
   -4.3994   -1.4280   -0.0913 H   0  0  0  0  0  0  0  0  0  0  0  0
   -4.4746   -3.5634   -1.2979 H   0  0  0  0  0  0  0  0  0  0  0  0
   -4.8463   -3.6489    0.4483 H   0  0  0  0  0  0  0  0  0  0  0  0
   -3.4680   -5.5242   -0.0464 H   0  0  0  0  0  0  0  0  0  0  0  0
   -2.4764   -3.8265   -1.9737 H   0  0  0  0  0  0  0  0  0  0  0  0
   -1.8190   -5.1957    1.5341 H   0  0  0  0  0  0  0  0  0  0  0  0
   -0.9625   -4.0694    0.4538 H   0  0  0  0  0  0  0  0  0  0  0  0
   -3.2364   -3.4937    2.4017 H   0  0  0  0  0  0  0  0  0  0  0  0
   -1.4894   -2.9607    2.4958 H   0  0  0  0  0  0  0  0  0  0  0  0
    1.8204    1.8350   -1.3496 H   0  0  0  0  0  0  0  0  0  0  0  0
    4.0873    1.1751   -1.1791 H   0  0  0  0  0  0  0  0  0  0  0  0
    5.0795   -1.8815    0.8688 H   0  0  0  0  0  0  0  0  0  0  0  0
    7.5743   -1.3036    1.3989 H   0  0  0  0  0  0  0  0  0  0  0  0
    8.4471    0.7654   -0.7463 H   0  0  0  0  0  0  0  0  0  0  0  0
    9.2315    0.4643    0.9079 H   0  0  0  0  0  0  0  0  0  0  0  0
    9.8491   -1.7666    0.2585 H   0  0  0  0  0  0  0  0  0  0  0  0
    9.8671   -1.0483   -1.4778 H   0  0  0  0  0  0  0  0  0  0  0  0
    7.5031   -1.4380   -1.7049 H   0  0  0  0  0  0  0  0  0  0  0  0
    7.8062   -2.8320   -0.4846 H   0  0  0  0  0  0  0  0  0  0  0  0
    2.8465   -1.8358    1.5504 H   0  0  0  0  0  0  0  0  0  0  0  0
  1  2  1  0
  2  3  1  0
  3  4  1  0
  4  5  1  0
  5  6  1  0
  6  7  2  0
  7  8  1  0
  8  9  2  0
  9 10  1  0
 10 11  1  0
 11 12  1  0
 12 13  1  0
 13 14  1  0
 14 15  1  0
 15 16  1  0
 15 17  1  0
 17 18  1  0
 10 19  2  0
  9 20  1  0
 20 21  2  0
 21 22  1  0
 22 23  2  0
 23 24  1  0
 24 25  1  0
 25 26  2  0
 25 27  1  0
 27 28  1  0
 28 29  1  0
 29 30  1  0
 23 31  1  0
 31 32  2  0
 19  6  1  0
 32 20  1  0
 18 12  1  0
 30 27  1  0
  1 33  1  0
  1 34  1  0
  1 35  1  0
  2 36  1  0
  2 37  1  0
  3 38  1  0
  3 39  1  0
  4 40  1  0
  4 41  1  0
  5 42  1  0
  8 43  1  0
 11 44  1  0
 12 45  1  0
 13 46  1  0
 13 47  1  0
 14 48  1  0
 14 49  1  0
 15 50  1  0
 16 51  1  0
 17 52  1  0
 17 53  1  0
 18 54  1  0
 18 55  1  0
 21 56  1  0
 22 57  1  0
 24 58  1  0
 27 59  1  0
 28 60  1  0
 28 61  1  0
 29 62  1  0
 29 63  1  0
 30 64  1  0
 30 65  1  0
 31 66  1  0
M  END
$$$$
[H]O[C@]1([H])C([H])([H])C([H])([H])[C@@]([H])(n2c([H])c(-c3c([H])c([H])c(S(=O)(=O)N4C([H])([H])C([H])([H])OC([H])([H])C4([H])[H])c([H])c3[H])c3c([H])nc(N([H])C([H])([H])C([H])([H])C([H])([H])C([H])([H])[H])nc32)C([H])([H])C1([H])[H]
     RDKit          3D

 71 75  0  0  0  0  0  0  0  0999 V2000
   -8.4534   -4.7385   -0.5698 C   0  0  0  0  0  0  0  0  0  0  0  0
   -6.9961   -4.3989   -0.4916 C   0  0  0  0  0  0  0  0  0  0  0  0
   -6.7745   -2.9059   -0.2230 C   0  0  0  0  0  0  0  0  0  0  0  0
   -5.2755   -2.7048   -0.1689 C   0  0  0  0  0  0  0  0  0  0  0  0
   -4.9290   -1.3217    0.0819 N   0  0  0  0  0  0  0  0  0  0  0  0
   -3.5430   -0.9916    0.1573 C   0  0  0  0  0  0  0  0  0  0  0  0
   -2.5804   -1.9226    0.0026 N   0  0  0  0  0  0  0  0  0  0  0  0
   -1.2656   -1.6455    0.0676 C   0  0  0  0  0  0  0  0  0  0  0  0
   -0.8871   -0.3603    0.3014 C   0  0  0  0  0  0  0  0  0  0  0  0
    0.3547    0.2211    0.4207 C   0  0  0  0  0  0  0  0  0  0  0  0
    0.1257    1.5596    0.6575 C   0  0  0  0  0  0  0  0  0  0  0  0
   -1.2251    1.7620    0.6771 N   0  0  0  0  0  0  0  0  0  0  0  0
   -1.7713    3.0892    0.9081 C   0  0  1  0  0  0  0  0  0  0  0  0
   -0.9757    4.0609    0.1063 C   0  0  0  0  0  0  0  0  0  0  0  0
   -1.6304    5.3733   -0.1303 C   0  0  0  0  0  0  0  0  0  0  0  0
   -3.1032    5.2926   -0.4168 C   0  0  2  0  0  0  0  0  0  0  0  0
   -3.5993    6.5823   -0.5222 O   0  0  0  0  0  0  0  0  0  0  0  0
   -3.7335    4.5519    0.7700 C   0  0  0  0  0  0  0  0  0  0  0  0
   -3.2373    3.1112    0.6503 C   0  0  0  0  0  0  0  0  0  0  0  0
   -1.8641    0.6120    0.4634 C   0  0  0  0  0  0  0  0  0  0  0  0
   -3.1439    0.2903    0.3908 N   0  0  0  0  0  0  0  0  0  0  0  0
    1.6932   -0.3854    0.3251 C   0  0  0  0  0  0  0  0  0  0  0  0
    2.6681   -0.0885    1.2655 C   0  0  0  0  0  0  0  0  0  0  0  0
    3.9220   -0.6412    1.1920 C   0  0  0  0  0  0  0  0  0  0  0  0
    4.2157   -1.5135    0.1552 C   0  0  0  0  0  0  0  0  0  0  0  0
    3.2458   -1.8020   -0.7709 C   0  0  0  0  0  0  0  0  0  0  0  0
    1.9970   -1.2514   -0.6977 C   0  0  0  0  0  0  0  0  0  0  0  0
    5.8172   -2.2209    0.0591 S   0  0  0  0  0  0  0  0  0  0  0  0
    6.3183   -2.3256    1.4905 O   0  0  0  0  0  0  0  0  0  0  0  0
    5.7237   -3.6145   -0.5001 O   0  0  0  0  0  0  0  0  0  0  0  0
    6.8122   -1.2120   -0.8903 N   0  0  0  0  0  0  0  0  0  0  0  0
    7.0012    0.1053   -0.3749 C   0  0  0  0  0  0  0  0  0  0  0  0
    8.1837    0.0981    0.5673 C   0  0  0  0  0  0  0  0  0  0  0  0
    9.3251   -0.1640   -0.2068 O   0  0  0  0  0  0  0  0  0  0  0  0
    9.2448   -1.5163   -0.5741 C   0  0  0  0  0  0  0  0  0  0  0  0
    8.0140   -1.8187   -1.3633 C   0  0  0  0  0  0  0  0  0  0  0  0
   -8.7190   -5.6587    0.0089 H   0  0  0  0  0  0  0  0  0  0  0  0
   -9.0640   -3.8744   -0.2145 H   0  0  0  0  0  0  0  0  0  0  0  0
   -8.7372   -4.9484   -1.6404 H   0  0  0  0  0  0  0  0  0  0  0  0
   -6.4471   -4.7003   -1.4231 H   0  0  0  0  0  0  0  0  0  0  0  0
   -6.5387   -4.9834    0.3305 H   0  0  0  0  0  0  0  0  0  0  0  0
   -7.2561   -2.3216   -1.0045 H   0  0  0  0  0  0  0  0  0  0  0  0
   -7.1676   -2.7324    0.7996 H   0  0  0  0  0  0  0  0  0  0  0  0
   -4.8092   -2.9715   -1.1600 H   0  0  0  0  0  0  0  0  0  0  0  0
   -4.8028   -3.3320    0.5858 H   0  0  0  0  0  0  0  0  0  0  0  0
   -5.6229   -0.5699    0.2078 H   0  0  0  0  0  0  0  0  0  0  0  0
   -0.5045   -2.4017   -0.0570 H   0  0  0  0  0  0  0  0  0  0  0  0
    0.9019    2.3025    0.8001 H   0  0  0  0  0  0  0  0  0  0  0  0
   -1.6235    3.2854    2.0070 H   0  0  0  0  0  0  0  0  0  0  0  0
   -0.0256    4.2611    0.6831 H   0  0  0  0  0  0  0  0  0  0  0  0
   -0.6202    3.5865   -0.8446 H   0  0  0  0  0  0  0  0  0  0  0  0
   -1.1535    5.8334   -1.0408 H   0  0  0  0  0  0  0  0  0  0  0  0
   -1.4763    6.1110    0.6873 H   0  0  0  0  0  0  0  0  0  0  0  0
   -3.2773    4.6678   -1.2959 H   0  0  0  0  0  0  0  0  0  0  0  0
   -4.4984    6.6829   -0.1120 H   0  0  0  0  0  0  0  0  0  0  0  0
   -3.2695    5.0140    1.6802 H   0  0  0  0  0  0  0  0  0  0  0  0
   -4.8199    4.6267    0.7735 H   0  0  0  0  0  0  0  0  0  0  0  0
   -3.7409    2.5619    1.4892 H   0  0  0  0  0  0  0  0  0  0  0  0
   -3.5355    2.7467   -0.3377 H   0  0  0  0  0  0  0  0  0  0  0  0
    2.4044    0.6032    2.0708 H   0  0  0  0  0  0  0  0  0  0  0  0
    4.6361   -0.3680    1.9572 H   0  0  0  0  0  0  0  0  0  0  0  0
    3.4693   -2.4848   -1.5859 H   0  0  0  0  0  0  0  0  0  0  0  0
    1.2147   -1.4730   -1.4327 H   0  0  0  0  0  0  0  0  0  0  0  0
    6.0865    0.4821    0.1075 H   0  0  0  0  0  0  0  0  0  0  0  0
    7.3021    0.7524   -1.2326 H   0  0  0  0  0  0  0  0  0  0  0  0
    8.2865    1.1273    0.9726 H   0  0  0  0  0  0  0  0  0  0  0  0
    8.1242   -0.6622    1.3441 H   0  0  0  0  0  0  0  0  0  0  0  0
   10.1233   -1.6802   -1.2642 H   0  0  0  0  0  0  0  0  0  0  0  0
    9.3878   -2.1503    0.3129 H   0  0  0  0  0  0  0  0  0  0  0  0
    8.2044   -1.5627   -2.4414 H   0  0  0  0  0  0  0  0  0  0  0  0
    7.8942   -2.9356   -1.3665 H   0  0  0  0  0  0  0  0  0  0  0  0
  1  2  1  0
  2  3  1  0
  3  4  1  0
  4  5  1  0
  5  6  1  0
  6  7  2  0
  7  8  1  0
  8  9  2  0
  9 10  1  0
 10 11  2  0
 11 12  1  0
 12 13  1  0
 13 14  1  0
 14 15  1  0
 15 16  1  0
 16 17  1  0
 16 18  1  0
 18 19  1  0
 12 20  1  0
 20 21  2  0
 10 22  1  0
 22 23  2  0
 23 24  1  0
 24 25  2  0
 25 26  1  0
 26 27  2  0
 25 28  1  0
 28 29  2  0
 28 30  2  0
 28 31  1  0
 31 32  1  0
 32 33  1  0
 33 34  1  0
 34 35  1  0
 35 36  1  0
 21  6  1  0
 27 22  1  0
 36 31  1  0
 20  9  1  0
 19 13  1  0
  1 37  1  0
  1 38  1  0
  1 39  1  0
  2 40  1  0
  2 41  1  0
  3 42  1  0
  3 43  1  0
  4 44  1  0
  4 45  1  0
  5 46  1  0
  8 47  1  0
 11 48  1  0
 13 49  1  1
 14 50  1  0
 14 51  1  0
 15 52  1  0
 15 53  1  0
 16 54  1  6
 17 55  1  0
 18 56  1  0
 18 57  1  0
 19 58  1  0
 19 59  1  0
 23 60  1  0
 24 61  1  0
 26 62  1  0
 27 63  1  0
 32 64  1  0
 32 65  1  0
 33 66  1  0
 33 67  1  0
 35 68  1  0
 35 69  1  0
 36 70  1  0
 36 71  1  0
M  END
$$$$
[H]O[C@]1([H])C([H])([H])C([H])([H])[C@@]([H])(n2c([H])c(-c3c([H])c([H])c(C([H])([H])N4C([H])([H])C([H])([H])N(C([H])([H])[H])C([H])([H])C4([H])[H])c([H])c3[H])c3c([H])nc(N([H])C4([H])C([H])([H])C([H])([H])C([H])([H])C([H])([H])C4([H])[H])nc32)C([H])([H])C1([H])[H]
     RDKit          3D

 79 84  0  0  0  0  0  0  0  0999 V2000
    8.3807    0.6446    0.1608 C   0  0  0  0  0  0  0  0  0  0  0  0
    8.4464   -0.7296    0.5486 N   0  0  0  0  0  0  0  0  0  0  0  0
    8.3036   -1.6615   -0.5522 C   0  0  0  0  0  0  0  0  0  0  0  0
    7.3616   -2.7768   -0.2493 C   0  0  0  0  0  0  0  0  0  0  0  0
    6.0578   -2.2418    0.0997 N   0  0  0  0  0  0  0  0  0  0  0  0
    5.4990   -1.6147   -1.0567 C   0  0  0  0  0  0  0  0  0  0  0  0
    4.1399   -1.0687   -0.8218 C   0  0  0  0  0  0  0  0  0  0  0  0
    3.3002   -1.4602    0.1934 C   0  0  0  0  0  0  0  0  0  0  0  0
    2.0328   -0.8986    0.3560 C   0  0  0  0  0  0  0  0  0  0  0  0
    1.5702    0.0668   -0.4887 C   0  0  0  0  0  0  0  0  0  0  0  0
    2.4060    0.4762   -1.5228 C   0  0  0  0  0  0  0  0  0  0  0  0
    3.6573   -0.0781   -1.6834 C   0  0  0  0  0  0  0  0  0  0  0  0
    0.2447    0.6800   -0.3509 C   0  0  0  0  0  0  0  0  0  0  0  0
   -0.0771    2.0184   -0.4196 C   0  0  0  0  0  0  0  0  0  0  0  0
   -1.3892    2.1885   -0.2441 N   0  0  0  0  0  0  0  0  0  0  0  0
   -2.0124    3.4896   -0.2659 C   0  0  1  0  0  0  0  0  0  0  0  0
   -3.4975    3.4564   -0.3306 C   0  0  0  0  0  0  0  0  0  0  0  0
   -3.9762    4.8515   -0.6808 C   0  0  0  0  0  0  0  0  0  0  0  0
   -3.4486    5.8865    0.2825 C   0  0  2  0  0  0  0  0  0  0  0  0
   -3.6978    7.1480   -0.2865 O   0  0  0  0  0  0  0  0  0  0  0  0
   -1.9787    5.7896    0.5233 C   0  0  0  0  0  0  0  0  0  0  0  0
   -1.6090    4.3520    0.9117 C   0  0  0  0  0  0  0  0  0  0  0  0
   -1.9185    0.9638   -0.0619 C   0  0  0  0  0  0  0  0  0  0  0  0
   -3.2019    0.6557    0.1503 N   0  0  0  0  0  0  0  0  0  0  0  0
   -3.5298   -0.6631    0.3110 C   0  0  0  0  0  0  0  0  0  0  0  0
   -4.8654   -1.0596    0.5475 N   0  0  0  0  0  0  0  0  0  0  0  0
   -5.2109   -2.4370    0.7088 C   0  0  0  0  0  0  0  0  0  0  0  0
   -4.9822   -3.2611   -0.5123 C   0  0  0  0  0  0  0  0  0  0  0  0
   -5.8100   -4.4967   -0.6007 C   0  0  0  0  0  0  0  0  0  0  0  0
   -7.2350   -4.3550   -0.1814 C   0  0  0  0  0  0  0  0  0  0  0  0
   -7.2075   -3.8722    1.2742 C   0  0  0  0  0  0  0  0  0  0  0  0
   -6.6423   -2.4726    1.2215 C   0  0  0  0  0  0  0  0  0  0  0  0
   -2.5737   -1.6028    0.2533 N   0  0  0  0  0  0  0  0  0  0  0  0
   -1.2647   -1.3315    0.0406 C   0  0  0  0  0  0  0  0  0  0  0  0
   -0.9312    0.0012   -0.1221 C   0  0  0  0  0  0  0  0  0  0  0  0
    6.1557   -1.3223    1.2152 C   0  0  0  0  0  0  0  0  0  0  0  0
    7.5799   -1.0696    1.6575 C   0  0  0  0  0  0  0  0  0  0  0  0
    7.5202    1.1459    0.6331 H   0  0  0  0  0  0  0  0  0  0  0  0
    8.3557    0.7095   -0.9512 H   0  0  0  0  0  0  0  0  0  0  0  0
    9.3262    1.1820    0.4579 H   0  0  0  0  0  0  0  0  0  0  0  0
    9.3202   -2.1276   -0.6957 H   0  0  0  0  0  0  0  0  0  0  0  0
    8.1039   -1.1037   -1.4688 H   0  0  0  0  0  0  0  0  0  0  0  0
    7.2429   -3.3855   -1.1646 H   0  0  0  0  0  0  0  0  0  0  0  0
    7.7352   -3.3426    0.6060 H   0  0  0  0  0  0  0  0  0  0  0  0
    6.0977   -0.7816   -1.4708 H   0  0  0  0  0  0  0  0  0  0  0  0
    5.4204   -2.4003   -1.8512 H   0  0  0  0  0  0  0  0  0  0  0  0
    3.6355   -2.2192    0.8715 H   0  0  0  0  0  0  0  0  0  0  0  0
    1.3929   -1.2288    1.1689 H   0  0  0  0  0  0  0  0  0  0  0  0
    2.0446    1.2530   -2.2097 H   0  0  0  0  0  0  0  0  0  0  0  0
    4.3186    0.2433   -2.4985 H   0  0  0  0  0  0  0  0  0  0  0  0
    0.6979    2.7745   -0.5971 H   0  0  0  0  0  0  0  0  0  0  0  0
   -1.6280    4.0086   -1.1737 H   0  0  0  0  0  0  0  0  0  0  0  0
   -3.8172    2.8002   -1.1659 H   0  0  0  0  0  0  0  0  0  0  0  0
   -3.9621    3.0863    0.6054 H   0  0  0  0  0  0  0  0  0  0  0  0
   -3.7339    5.0911   -1.7163 H   0  0  0  0  0  0  0  0  0  0  0  0
   -5.0800    4.8411   -0.5746 H   0  0  0  0  0  0  0  0  0  0  0  0
   -3.9666    5.8722    1.2488 H   0  0  0  0  0  0  0  0  0  0  0  0
   -3.1741    7.8646    0.1592 H   0  0  0  0  0  0  0  0  0  0  0  0
   -1.7098    6.4737    1.3341 H   0  0  0  0  0  0  0  0  0  0  0  0
   -1.3726    6.0336   -0.3663 H   0  0  0  0  0  0  0  0  0  0  0  0
   -2.1822    4.0139    1.7988 H   0  0  0  0  0  0  0  0  0  0  0  0
   -0.5351    4.2938    1.1223 H   0  0  0  0  0  0  0  0  0  0  0  0
   -5.5865   -0.3092    0.5985 H   0  0  0  0  0  0  0  0  0  0  0  0
   -4.6116   -2.9278    1.5307 H   0  0  0  0  0  0  0  0  0  0  0  0
   -5.0627   -2.6806   -1.4559 H   0  0  0  0  0  0  0  0  0  0  0  0
   -3.9071   -3.6141   -0.4941 H   0  0  0  0  0  0  0  0  0  0  0  0
   -5.3690   -5.3467   -0.0257 H   0  0  0  0  0  0  0  0  0  0  0  0
   -5.8039   -4.8383   -1.6661 H   0  0  0  0  0  0  0  0  0  0  0  0
   -7.7041   -5.3567   -0.2436 H   0  0  0  0  0  0  0  0  0  0  0  0
   -7.7592   -3.5912   -0.7674 H   0  0  0  0  0  0  0  0  0  0  0  0
   -8.2092   -3.8073    1.7081 H   0  0  0  0  0  0  0  0  0  0  0  0
   -6.5051   -4.5160    1.8457 H   0  0  0  0  0  0  0  0  0  0  0  0
   -6.6341   -2.0071    2.2170 H   0  0  0  0  0  0  0  0  0  0  0  0
   -7.2555   -1.8915    0.4974 H   0  0  0  0  0  0  0  0  0  0  0  0
   -0.5070   -2.0985   -0.0038 H   0  0  0  0  0  0  0  0  0  0  0  0
    5.6231   -0.4030    0.9603 H   0  0  0  0  0  0  0  0  0  0  0  0
    5.6453   -1.7976    2.0796 H   0  0  0  0  0  0  0  0  0  0  0  0
    7.9706   -1.9386    2.2195 H   0  0  0  0  0  0  0  0  0  0  0  0
    7.5498   -0.1695    2.3177 H   0  0  0  0  0  0  0  0  0  0  0  0
  1  2  1  0
  2  3  1  0
  3  4  1  0
  4  5  1  0
  5  6  1  0
  6  7  1  0
  7  8  2  0
  8  9  1  0
  9 10  2  0
 10 11  1  0
 11 12  2  0
 10 13  1  0
 13 14  2  0
 14 15  1  0
 15 16  1  0
 16 17  1  0
 17 18  1  0
 18 19  1  0
 19 20  1  0
 19 21  1  0
 21 22  1  0
 15 23  1  0
 23 24  2  0
 24 25  1  0
 25 26  1  0
 26 27  1  0
 27 28  1  0
 28 29  1  0
 29 30  1  0
 30 31  1  0
 31 32  1  0
 25 33  2  0
 33 34  1  0
 34 35  2  0
  5 36  1  0
 36 37  1  0
 37  2  1  0
 12  7  1  0
 35 13  1  0
 22 16  1  0
 35 23  1  0
 32 27  1  0
  1 38  1  0
  1 39  1  0
  1 40  1  0
  3 41  1  0
  3 42  1  0
  4 43  1  0
  4 44  1  0
  6 45  1  0
  6 46  1  0
  8 47  1  0
  9 48  1  0
 11 49  1  0
 12 50  1  0
 14 51  1  0
 16 52  1  6
 17 53  1  0
 17 54  1  0
 18 55  1  0
 18 56  1  0
 19 57  1  1
 20 58  1  0
 21 59  1  0
 21 60  1  0
 22 61  1  0
 22 62  1  0
 26 63  1  0
 27 64  1  0
 28 65  1  0
 28 66  1  0
 29 67  1  0
 29 68  1  0
 30 69  1  0
 30 70  1  0
 31 71  1  0
 31 72  1  0
 32 73  1  0
 32 74  1  0
 34 75  1  0
 36 76  1  0
 36 77  1  0
 37 78  1  0
 37 79  1  0
M  END
$$$$
[H]O[C@]1([H])C([H])([H])C([H])([H])[C@@]([H])(N([H])c2nc(N([H])C([H])([H])C([H])([H])C([H])([H])C([H])([H])[H])nc([H])c2-c2nc([H])c(C([H])([H])N([H])C([H])([H])C(C([H])([H])[H])(C([H])([H])[H])C([H])([H])[H])c([H])c2[H])C([H])([H])C1([H])[H]
     RDKit          3D

 72 74  0  0  0  0  0  0  0  0999 V2000
   -6.6509   -2.7611   -1.7178 C   0  0  0  0  0  0  0  0  0  0  0  0
   -7.3814   -1.4781   -1.3315 C   0  0  0  0  0  0  0  0  0  0  0  0
   -7.5061   -1.4478    0.1850 C   0  0  0  0  0  0  0  0  0  0  0  0
   -6.1181   -1.4886    0.8027 C   0  0  0  0  0  0  0  0  0  0  0  0
   -5.3302   -0.3510    0.3977 N   0  0  0  0  0  0  0  0  0  0  0  0
   -3.9181   -0.3743    0.6909 C   0  0  0  0  0  0  0  0  0  0  0  0
   -3.3602   -1.4276    1.3038 N   0  0  0  0  0  0  0  0  0  0  0  0
   -2.0414   -1.4596    1.5466 C   0  0  0  0  0  0  0  0  0  0  0  0
   -1.2012   -0.3879    1.1662 C   0  0  0  0  0  0  0  0  0  0  0  0
   -1.7822    0.6609    0.5510 C   0  0  0  0  0  0  0  0  0  0  0  0
   -1.0346    1.7305    0.0397 N   0  0  0  0  0  0  0  0  0  0  0  0
   -1.7239    2.8490   -0.5699 C   0  0  1  0  0  0  0  0  0  0  0  0
   -0.7489    3.9972   -0.8394 C   0  0  0  0  0  0  0  0  0  0  0  0
   -1.2498    4.9368   -1.9066 C   0  0  0  0  0  0  0  0  0  0  0  0
   -2.7431    5.0110   -1.8779 C   0  0  2  0  0  0  0  0  0  0  0  0
   -3.2234    5.4657   -0.6422 O   0  0  0  0  0  0  0  0  0  0  0  0
   -3.3625    3.6724   -2.1479 C   0  0  0  0  0  0  0  0  0  0  0  0
   -2.3689    2.5208   -1.8981 C   0  0  0  0  0  0  0  0  0  0  0  0
   -3.1552    0.6490    0.3219 N   0  0  0  0  0  0  0  0  0  0  0  0
    0.2138   -0.5290    1.4114 C   0  0  0  0  0  0  0  0  0  0  0  0
    1.0774    0.4109    1.8578 C   0  0  0  0  0  0  0  0  0  0  0  0
    2.4079    0.0802    2.1055 C   0  0  0  0  0  0  0  0  0  0  0  0
    2.9154   -1.1768    1.9230 C   0  0  0  0  0  0  0  0  0  0  0  0
    4.3165   -1.5488    2.1588 C   0  0  0  0  0  0  0  0  0  0  0  0
    5.0870   -1.6301    0.9304 N   0  0  0  0  0  0  0  0  0  0  0  0
    6.4365   -2.0105    1.1789 C   0  0  0  0  0  0  0  0  0  0  0  0
    7.2725   -2.1133   -0.0719 C   0  0  0  0  0  0  0  0  0  0  0  0
    7.2935   -0.7761   -0.7537 C   0  0  0  0  0  0  0  0  0  0  0  0
    6.7454   -3.1213   -1.0520 C   0  0  0  0  0  0  0  0  0  0  0  0
    8.6833   -2.4861    0.3914 C   0  0  0  0  0  0  0  0  0  0  0  0
    1.9914   -2.1165    1.4643 C   0  0  0  0  0  0  0  0  0  0  0  0
    0.7254   -1.8081    1.2260 N   0  0  0  0  0  0  0  0  0  0  0  0
   -6.8967   -3.5984   -1.0389 H   0  0  0  0  0  0  0  0  0  0  0  0
   -5.5582   -2.5777   -1.6443 H   0  0  0  0  0  0  0  0  0  0  0  0
   -6.9070   -3.0764   -2.7578 H   0  0  0  0  0  0  0  0  0  0  0  0
   -6.8572   -0.5875   -1.7022 H   0  0  0  0  0  0  0  0  0  0  0  0
   -8.4040   -1.5213   -1.7660 H   0  0  0  0  0  0  0  0  0  0  0  0
   -8.0934   -2.3256    0.4884 H   0  0  0  0  0  0  0  0  0  0  0  0
   -8.0469   -0.5335    0.4725 H   0  0  0  0  0  0  0  0  0  0  0  0
   -6.2980   -1.4859    1.9152 H   0  0  0  0  0  0  0  0  0  0  0  0
   -5.5914   -2.4034    0.5390 H   0  0  0  0  0  0  0  0  0  0  0  0
   -5.7699    0.4555   -0.0927 H   0  0  0  0  0  0  0  0  0  0  0  0
   -1.5559   -2.2952    2.0408 H   0  0  0  0  0  0  0  0  0  0  0  0
   -0.0163    1.7786    0.0239 H   0  0  0  0  0  0  0  0  0  0  0  0
   -2.5187    3.2536    0.0850 H   0  0  0  0  0  0  0  0  0  0  0  0
   -0.5417    4.5937    0.0639 H   0  0  0  0  0  0  0  0  0  0  0  0
    0.2284    3.5265   -1.1374 H   0  0  0  0  0  0  0  0  0  0  0  0
   -0.9298    4.6608   -2.9336 H   0  0  0  0  0  0  0  0  0  0  0  0
   -0.8553    5.9619   -1.6615 H   0  0  0  0  0  0  0  0  0  0  0  0
   -3.0804    5.7425   -2.6488 H   0  0  0  0  0  0  0  0  0  0  0  0
   -2.4811    5.8876   -0.1314 H   0  0  0  0  0  0  0  0  0  0  0  0
   -3.6536    3.5787   -3.2062 H   0  0  0  0  0  0  0  0  0  0  0  0
   -4.2775    3.4662   -1.5484 H   0  0  0  0  0  0  0  0  0  0  0  0
   -2.9262    1.6072   -1.9571 H   0  0  0  0  0  0  0  0  0  0  0  0
   -1.6260    2.5101   -2.7267 H   0  0  0  0  0  0  0  0  0  0  0  0
    0.7168    1.4109    2.0551 H   0  0  0  0  0  0  0  0  0  0  0  0
    3.0408    0.8698    2.4552 H   0  0  0  0  0  0  0  0  0  0  0  0
    4.4277   -2.4885    2.7101 H   0  0  0  0  0  0  0  0  0  0  0  0
    4.7868   -0.7570    2.7847 H   0  0  0  0  0  0  0  0  0  0  0  0
    4.9827   -0.7428    0.3859 H   0  0  0  0  0  0  0  0  0  0  0  0
    6.4246   -3.0406    1.6223 H   0  0  0  0  0  0  0  0  0  0  0  0
    6.9600   -1.3006    1.8511 H   0  0  0  0  0  0  0  0  0  0  0  0
    6.4545   -0.6631   -1.4926 H   0  0  0  0  0  0  0  0  0  0  0  0
    7.1304    0.0284   -0.0036 H   0  0  0  0  0  0  0  0  0  0  0  0
    8.2240   -0.6220   -1.3453 H   0  0  0  0  0  0  0  0  0  0  0  0
    7.1641   -4.1390   -0.8983 H   0  0  0  0  0  0  0  0  0  0  0  0
    7.1125   -2.8278   -2.0723 H   0  0  0  0  0  0  0  0  0  0  0  0
    5.6526   -3.0694   -1.0733 H   0  0  0  0  0  0  0  0  0  0  0  0
    9.0753   -1.5951    0.9436 H   0  0  0  0  0  0  0  0  0  0  0  0
    9.3103   -2.7490   -0.4591 H   0  0  0  0  0  0  0  0  0  0  0  0
    8.5352   -3.2939    1.1340 H   0  0  0  0  0  0  0  0  0  0  0  0
    2.3924   -3.1300    1.3214 H   0  0  0  0  0  0  0  0  0  0  0  0
  1  2  1  0
  2  3  1  0
  3  4  1  0
  4  5  1  0
  5  6  1  0
  6  7  2  0
  7  8  1  0
  8  9  2  0
  9 10  1  0
 10 11  1  0
 11 12  1  0
 12 13  1  0
 13 14  1  0
 14 15  1  0
 15 16  1  0
 15 17  1  0
 17 18  1  0
 10 19  2  0
  9 20  1  0
 20 21  2  0
 21 22  1  0
 22 23  2  0
 23 24  1  0
 24 25  1  0
 25 26  1  0
 26 27  1  0
 27 28  1  0
 27 29  1  0
 27 30  1  0
 23 31  1  0
 31 32  2  0
 19  6  1  0
 32 20  1  0
 18 12  1  0
  1 33  1  0
  1 34  1  0
  1 35  1  0
  2 36  1  0
  2 37  1  0
  3 38  1  0
  3 39  1  0
  4 40  1  0
  4 41  1  0
  5 42  1  0
  8 43  1  0
 11 44  1  0
 12 45  1  1
 13 46  1  0
 13 47  1  0
 14 48  1  0
 14 49  1  0
 15 50  1  6
 16 51  1  0
 17 52  1  0
 17 53  1  0
 18 54  1  0
 18 55  1  0
 21 56  1  0
 22 57  1  0
 24 58  1  0
 24 59  1  0
 25 60  1  0
 26 61  1  0
 26 62  1  0
 28 63  1  0
 28 64  1  0
 28 65  1  0
 29 66  1  0
 29 67  1  0
 29 68  1  0
 30 69  1  0
 30 70  1  0
 30 71  1  0
 31 72  1  0
M  END
$$$$
[H]OC1([H])C([H])([H])C([H])([H])C([H])([H])C([H])([H])n2c([H])c(-c3c([H])c([H])c(C([H])([H])N4C([H])([H])C([H])([H])N(C([H])([H])[H])C([H])([H])C4([H])[H])c([H])c3[H])c3c([H])nc(nc32)N([H])C([H])([H])C([H])([H])C([H])([H])C([H])([H])C([H])([H])C1([H])[H]
     RDKit          3D

 78 82  0  0  0  0  0  0  0  0999 V2000
    9.1863    2.2954   -1.2097 C   0  0  0  0  0  0  0  0  0  0  0  0
    8.5982    1.1849   -0.4800 N   0  0  0  0  0  0  0  0  0  0  0  0
    7.2890    1.5905   -0.0041 C   0  0  0  0  0  0  0  0  0  0  0  0
    6.8143    0.5452    0.9891 C   0  0  0  0  0  0  0  0  0  0  0  0
    7.0234   -0.7450    0.4532 N   0  0  0  0  0  0  0  0  0  0  0  0
    6.3463   -1.8390    1.0451 C   0  0  0  0  0  0  0  0  0  0  0  0
    4.8818   -1.6453    0.9481 C   0  0  0  0  0  0  0  0  0  0  0  0
    4.1264   -1.2178    1.9999 C   0  0  0  0  0  0  0  0  0  0  0  0
    2.7654   -1.0506    1.8690 C   0  0  0  0  0  0  0  0  0  0  0  0
    2.1023   -1.3053    0.6763 C   0  0  0  0  0  0  0  0  0  0  0  0
    2.8635   -1.7367   -0.3856 C   0  0  0  0  0  0  0  0  0  0  0  0
    4.2341   -1.9024   -0.2449 C   0  0  0  0  0  0  0  0  0  0  0  0
    0.6602   -1.1025    0.6297 C   0  0  0  0  0  0  0  0  0  0  0  0
   -0.3145   -1.4939    1.5202 C   0  0  0  0  0  0  0  0  0  0  0  0
   -1.5367   -1.1013    1.0903 N   0  0  0  0  0  0  0  0  0  0  0  0
   -2.8385   -1.2919    1.6987 C   0  0  0  0  0  0  0  0  0  0  0  0
   -3.6265   -2.2457    0.8438 C   0  0  0  0  0  0  0  0  0  0  0  0
   -5.0651   -2.2326    1.3770 C   0  0  0  0  0  0  0  0  0  0  0  0
   -5.9023   -1.1939    0.6899 C   0  0  0  0  0  0  0  0  0  0  0  0
   -6.5644   -0.2306    1.6415 C   0  0  0  0  0  0  0  0  0  0  0  0
   -6.3780   -0.5604    2.9666 O   0  0  0  0  0  0  0  0  0  0  0  0
   -6.0718    1.1846    1.4238 C   0  0  0  0  0  0  0  0  0  0  0  0
   -7.0080    1.9922    0.5667 C   0  0  0  0  0  0  0  0  0  0  0  0
   -6.7959    1.7735   -0.9085 C   0  0  0  0  0  0  0  0  0  0  0  0
   -5.4857    2.3639   -1.3853 C   0  0  0  0  0  0  0  0  0  0  0  0
   -5.2669    1.9128   -2.7961 C   0  0  0  0  0  0  0  0  0  0  0  0
   -4.2486    0.7995   -2.8987 C   0  0  0  0  0  0  0  0  0  0  0  0
   -2.8948    1.2914   -2.8088 N   0  0  0  0  0  0  0  0  0  0  0  0
   -1.8887    0.6960   -1.9793 C   0  0  0  0  0  0  0  0  0  0  0  0
   -0.5809    0.7454   -2.3409 N   0  0  0  0  0  0  0  0  0  0  0  0
    0.3547    0.1826   -1.5540 C   0  0  0  0  0  0  0  0  0  0  0  0
   -0.0228   -0.4357   -0.3939 C   0  0  0  0  0  0  0  0  0  0  0  0
   -1.3503   -0.4719   -0.0510 C   0  0  0  0  0  0  0  0  0  0  0  0
   -2.2550    0.0924   -0.8470 N   0  0  0  0  0  0  0  0  0  0  0  0
    7.3006   -0.8325   -0.9406 C   0  0  0  0  0  0  0  0  0  0  0  0
    8.4984    0.0148   -1.3414 C   0  0  0  0  0  0  0  0  0  0  0  0
    9.5483    3.0472   -0.4773 H   0  0  0  0  0  0  0  0  0  0  0  0
    8.3608    2.8014   -1.7846 H   0  0  0  0  0  0  0  0  0  0  0  0
    9.9828    1.9745   -1.8975 H   0  0  0  0  0  0  0  0  0  0  0  0
    7.3829    2.5865    0.4703 H   0  0  0  0  0  0  0  0  0  0  0  0
    6.6045    1.5958   -0.8736 H   0  0  0  0  0  0  0  0  0  0  0  0
    5.7424    0.7228    1.2308 H   0  0  0  0  0  0  0  0  0  0  0  0
    7.4237    0.6071    1.9366 H   0  0  0  0  0  0  0  0  0  0  0  0
    6.5899   -1.8394    2.1309 H   0  0  0  0  0  0  0  0  0  0  0  0
    6.5800   -2.8184    0.5757 H   0  0  0  0  0  0  0  0  0  0  0  0
    4.6495   -1.0148    2.9474 H   0  0  0  0  0  0  0  0  0  0  0  0
    2.2113   -0.7087    2.7363 H   0  0  0  0  0  0  0  0  0  0  0  0
    2.3531   -1.9375   -1.3145 H   0  0  0  0  0  0  0  0  0  0  0  0
    4.8118   -2.2372   -1.0717 H   0  0  0  0  0  0  0  0  0  0  0  0
   -0.1089   -2.0392    2.4320 H   0  0  0  0  0  0  0  0  0  0  0  0
   -3.3357   -0.3224    1.8408 H   0  0  0  0  0  0  0  0  0  0  0  0
   -2.7606   -1.7531    2.7070 H   0  0  0  0  0  0  0  0  0  0  0  0
   -3.5905   -2.0406   -0.2241 H   0  0  0  0  0  0  0  0  0  0  0  0
   -3.2648   -3.2830    1.0001 H   0  0  0  0  0  0  0  0  0  0  0  0
   -5.5579   -3.2147    1.2055 H   0  0  0  0  0  0  0  0  0  0  0  0
   -5.0903   -2.0465    2.4632 H   0  0  0  0  0  0  0  0  0  0  0  0
   -6.6559   -1.6624   -0.0081 H   0  0  0  0  0  0  0  0  0  0  0  0
   -5.2239   -0.6063    0.0366 H   0  0  0  0  0  0  0  0  0  0  0  0
   -7.6778   -0.2690    1.4615 H   0  0  0  0  0  0  0  0  0  0  0  0
   -5.6723    0.0075    3.3605 H   0  0  0  0  0  0  0  0  0  0  0  0
   -6.0031    1.7046    2.4040 H   0  0  0  0  0  0  0  0  0  0  0  0
   -5.0538    1.1164    0.9909 H   0  0  0  0  0  0  0  0  0  0  0  0
   -8.0420    1.6468    0.8007 H   0  0  0  0  0  0  0  0  0  0  0  0
   -6.9772    3.0694    0.7819 H   0  0  0  0  0  0  0  0  0  0  0  0
   -6.8577    0.6891   -1.1525 H   0  0  0  0  0  0  0  0  0  0  0  0
   -7.6476    2.2598   -1.4295 H   0  0  0  0  0  0  0  0  0  0  0  0
   -5.6324    3.4749   -1.4010 H   0  0  0  0  0  0  0  0  0  0  0  0
   -4.6539    2.1639   -0.7129 H   0  0  0  0  0  0  0  0  0  0  0  0
   -4.9311    2.7307   -3.4681 H   0  0  0  0  0  0  0  0  0  0  0  0
   -6.2160    1.5198   -3.2521 H   0  0  0  0  0  0  0  0  0  0  0  0
   -4.3518    0.2894   -3.8861 H   0  0  0  0  0  0  0  0  0  0  0  0
   -4.3906    0.0161   -2.1253 H   0  0  0  0  0  0  0  0  0  0  0  0
   -2.6437    2.1264   -3.3826 H   0  0  0  0  0  0  0  0  0  0  0  0
    1.4149    0.2053   -1.8150 H   0  0  0  0  0  0  0  0  0  0  0  0
    6.4227   -0.5306   -1.5483 H   0  0  0  0  0  0  0  0  0  0  0  0
    7.5626   -1.8831   -1.1802 H   0  0  0  0  0  0  0  0  0  0  0  0
    8.3073    0.3820   -2.3668 H   0  0  0  0  0  0  0  0  0  0  0  0
    9.4417   -0.5604   -1.3626 H   0  0  0  0  0  0  0  0  0  0  0  0
  1  2  1  0
  2  3  1  0
  3  4  1  0
  4  5  1  0
  5  6  1  0
  6  7  1  0
  7  8  2  0
  8  9  1  0
  9 10  2  0
 10 11  1  0
 11 12  2  0
 10 13  1  0
 13 14  2  0
 14 15  1  0
 15 16  1  0
 16 17  1  0
 17 18  1  0
 18 19  1  0
 19 20  1  0
 20 21  1  0
 20 22  1  0
 22 23  1  0
 23 24  1  0
 24 25  1  0
 25 26  1  0
 26 27  1  0
 27 28  1  0
 28 29  1  0
 29 30  2  0
 30 31  1  0
 31 32  2  0
 32 33  1  0
 33 34  2  0
  5 35  1  0
 35 36  1  0
 36  2  1  0
 12  7  1  0
 32 13  1  0
 33 15  1  0
 34 29  1  0
  1 37  1  0
  1 38  1  0
  1 39  1  0
  3 40  1  0
  3 41  1  0
  4 42  1  0
  4 43  1  0
  6 44  1  0
  6 45  1  0
  8 46  1  0
  9 47  1  0
 11 48  1  0
 12 49  1  0
 14 50  1  0
 16 51  1  0
 16 52  1  0
 17 53  1  0
 17 54  1  0
 18 55  1  0
 18 56  1  0
 19 57  1  0
 19 58  1  0
 20 59  1  0
 21 60  1  0
 22 61  1  0
 22 62  1  0
 23 63  1  0
 23 64  1  0
 24 65  1  0
 24 66  1  0
 25 67  1  0
 25 68  1  0
 26 69  1  0
 26 70  1  0
 27 71  1  0
 27 72  1  0
 28 73  1  0
 31 74  1  0
 35 75  1  0
 35 76  1  0
 36 77  1  0
 36 78  1  0
M  END
$$$$
[H]OC1([H])C([H])([H])C([H])([H])C([H])(N([H])c2nc(N([H])C([H])([H])C([H])([H])C([H])([H])C([H])([H])[H])nc([H])c2-c2nc([H])c(C([H])([H])N3C([H])([H])C([H])([H])N([H])C([H])([H])[C@]3([H])C([H])([H])[H])c([H])c2[H])C([H])([H])C1([H])[H]
     RDKit          3D

 72 75  0  0  0  0  0  0  0  0999 V2000
   -5.1231    4.3372    1.6794 C   0  0  0  0  0  0  0  0  0  0  0  0
   -5.4586    3.2606    0.6957 C   0  0  0  0  0  0  0  0  0  0  0  0
   -4.8864    3.5852   -0.6710 C   0  0  0  0  0  0  0  0  0  0  0  0
   -5.2766    2.4514   -1.5811 C   0  0  0  0  0  0  0  0  0  0  0  0
   -4.7361    1.2221   -1.0795 N   0  0  0  0  0  0  0  0  0  0  0  0
   -3.3420    0.9768   -1.0766 C   0  0  0  0  0  0  0  0  0  0  0  0
   -2.4245    1.8309   -1.5333 N   0  0  0  0  0  0  0  0  0  0  0  0
   -1.1104    1.5730   -1.5175 C   0  0  0  0  0  0  0  0  0  0  0  0
   -0.6849    0.3364   -0.9908 C   0  0  0  0  0  0  0  0  0  0  0  0
   -1.5932   -0.5541   -0.5234 C   0  0  0  0  0  0  0  0  0  0  0  0
   -1.3341   -1.8584   -0.0900 N   0  0  0  0  0  0  0  0  0  0  0  0
   -2.3951   -2.7145    0.4599 C   0  0  0  0  0  0  0  0  0  0  0  0
   -1.7783   -4.0065    0.8812 C   0  0  0  0  0  0  0  0  0  0  0  0
   -2.7304   -5.0488    1.3544 C   0  0  0  0  0  0  0  0  0  0  0  0
   -4.1238   -4.7541    0.8524 C   0  0  0  0  0  0  0  0  0  0  0  0
   -4.9803   -5.8405    0.9737 O   0  0  0  0  0  0  0  0  0  0  0  0
   -3.9530   -4.3384   -0.6117 C   0  0  0  0  0  0  0  0  0  0  0  0
   -3.4761   -2.8999   -0.5842 C   0  0  0  0  0  0  0  0  0  0  0  0
   -2.9039   -0.1884   -0.5857 N   0  0  0  0  0  0  0  0  0  0  0  0
    0.7444    0.1240   -1.0175 C   0  0  0  0  0  0  0  0  0  0  0  0
    1.3841   -0.5244    0.0060 C   0  0  0  0  0  0  0  0  0  0  0  0
    2.7781   -0.6242   -0.0387 C   0  0  0  0  0  0  0  0  0  0  0  0
    3.4658   -0.0797   -1.0855 C   0  0  0  0  0  0  0  0  0  0  0  0
    4.9340   -0.1909   -1.1263 C   0  0  0  0  0  0  0  0  0  0  0  0
    5.6513    0.8019   -0.4485 N   0  0  0  0  0  0  0  0  0  0  0  0
    5.4666    2.1357   -0.8585 C   0  0  0  0  0  0  0  0  0  0  0  0
    6.4285    3.1163   -0.2698 C   0  0  0  0  0  0  0  0  0  0  0  0
    7.2893    2.5481    0.7418 N   0  0  0  0  0  0  0  0  0  0  0  0
    6.4480    1.7909    1.6492 C   0  0  0  0  0  0  0  0  0  0  0  0
    6.0001    0.5570    0.8958 C   0  0  2  0  0  0  0  0  0  0  0  0
    7.1878   -0.4058    0.9079 C   0  0  0  0  0  0  0  0  0  0  0  0
    2.7723    0.5586   -2.0793 C   0  0  0  0  0  0  0  0  0  0  0  0
    1.4508    0.6596   -2.0499 N   0  0  0  0  0  0  0  0  0  0  0  0
   -4.2149    4.1049    2.2614 H   0  0  0  0  0  0  0  0  0  0  0  0
   -4.9942    5.2941    1.1113 H   0  0  0  0  0  0  0  0  0  0  0  0
   -5.9972    4.4430    2.3673 H   0  0  0  0  0  0  0  0  0  0  0  0
   -5.0570    2.2721    0.9956 H   0  0  0  0  0  0  0  0  0  0  0  0
   -6.5727    3.2103    0.5557 H   0  0  0  0  0  0  0  0  0  0  0  0
   -3.8068    3.6865   -0.5580 H   0  0  0  0  0  0  0  0  0  0  0  0
   -5.3242    4.5604   -1.0433 H   0  0  0  0  0  0  0  0  0  0  0  0
   -4.8468    2.7084   -2.5868 H   0  0  0  0  0  0  0  0  0  0  0  0
   -6.3852    2.4055   -1.6718 H   0  0  0  0  0  0  0  0  0  0  0  0
   -5.3941    0.4776   -0.7014 H   0  0  0  0  0  0  0  0  0  0  0  0
   -0.3974    2.2948   -1.8991 H   0  0  0  0  0  0  0  0  0  0  0  0
   -0.4157   -2.3278   -0.1603 H   0  0  0  0  0  0  0  0  0  0  0  0
   -2.7679   -2.1837    1.3489 H   0  0  0  0  0  0  0  0  0  0  0  0
   -1.1019   -3.7724    1.7544 H   0  0  0  0  0  0  0  0  0  0  0  0
   -1.0579   -4.4004    0.1048 H   0  0  0  0  0  0  0  0  0  0  0  0
   -2.7018   -5.2353    2.4470 H   0  0  0  0  0  0  0  0  0  0  0  0
   -2.4146   -6.0230    0.8786 H   0  0  0  0  0  0  0  0  0  0  0  0
   -4.5204   -3.9041    1.4511 H   0  0  0  0  0  0  0  0  0  0  0  0
   -5.1056   -6.2376    0.0813 H   0  0  0  0  0  0  0  0  0  0  0  0
   -3.1590   -4.9646   -1.0463 H   0  0  0  0  0  0  0  0  0  0  0  0
   -4.9223   -4.4425   -1.1329 H   0  0  0  0  0  0  0  0  0  0  0  0
   -3.1779   -2.5527   -1.5875 H   0  0  0  0  0  0  0  0  0  0  0  0
   -4.3504   -2.3025   -0.2571 H   0  0  0  0  0  0  0  0  0  0  0  0
    0.8893   -0.9354    0.8678 H   0  0  0  0  0  0  0  0  0  0  0  0
    3.2620   -1.1474    0.7881 H   0  0  0  0  0  0  0  0  0  0  0  0
    5.2283   -0.1729   -2.2161 H   0  0  0  0  0  0  0  0  0  0  0  0
    5.2694   -1.1957   -0.7679 H   0  0  0  0  0  0  0  0  0  0  0  0
    4.3919    2.4382   -0.6951 H   0  0  0  0  0  0  0  0  0  0  0  0
    5.5915    2.1865   -1.9705 H   0  0  0  0  0  0  0  0  0  0  0  0
    5.8338    3.9282    0.1975 H   0  0  0  0  0  0  0  0  0  0  0  0
    7.0908    3.6024   -1.0168 H   0  0  0  0  0  0  0  0  0  0  0  0
    7.7901    3.3205    1.2164 H   0  0  0  0  0  0  0  0  0  0  0  0
    5.5974    2.3863    2.0148 H   0  0  0  0  0  0  0  0  0  0  0  0
    7.0674    1.4341    2.5194 H   0  0  0  0  0  0  0  0  0  0  0  0
    5.2029    0.0599    1.4998 H   0  0  0  0  0  0  0  0  0  0  0  0
    7.7863   -0.1773    0.0025 H   0  0  0  0  0  0  0  0  0  0  0  0
    6.8323   -1.4470    0.7970 H   0  0  0  0  0  0  0  0  0  0  0  0
    7.8468   -0.2395    1.7721 H   0  0  0  0  0  0  0  0  0  0  0  0
    3.3153    1.0110   -2.9417 H   0  0  0  0  0  0  0  0  0  0  0  0
  1  2  1  0
  2  3  1  0
  3  4  1  0
  4  5  1  0
  5  6  1  0
  6  7  2  0
  7  8  1  0
  8  9  2  0
  9 10  1  0
 10 11  1  0
 11 12  1  0
 12 13  1  0
 13 14  1  0
 14 15  1  0
 15 16  1  0
 15 17  1  0
 17 18  1  0
 10 19  2  0
  9 20  1  0
 20 21  2  0
 21 22  1  0
 22 23  2  0
 23 24  1  0
 24 25  1  0
 25 26  1  0
 26 27  1  0
 27 28  1  0
 28 29  1  0
 29 30  1  0
 30 31  1  0
 23 32  1  0
 32 33  2  0
 19  6  1  0
 33 20  1  0
 18 12  1  0
 30 25  1  0
  1 34  1  0
  1 35  1  0
  1 36  1  0
  2 37  1  0
  2 38  1  0
  3 39  1  0
  3 40  1  0
  4 41  1  0
  4 42  1  0
  5 43  1  0
  8 44  1  0
 11 45  1  0
 12 46  1  0
 13 47  1  0
 13 48  1  0
 14 49  1  0
 14 50  1  0
 15 51  1  0
 16 52  1  0
 17 53  1  0
 17 54  1  0
 18 55  1  0
 18 56  1  0
 21 57  1  0
 22 58  1  0
 24 59  1  0
 24 60  1  0
 26 61  1  0
 26 62  1  0
 27 63  1  0
 27 64  1  0
 28 65  1  0
 29 66  1  0
 29 67  1  0
 30 68  1  1
 31 69  1  0
 31 70  1  0
 31 71  1  0
 32 72  1  0
M  END
$$$$
[H]c1nc(N([H])[H])c(C(=O)N([H])[C@@]2([H])C([H])([H])C([H])([H])C([H])([H])[C@]2([H])OC([H])([H])c2c([H])c([H])c3c([H])c([H])c([H])c([H])c3c2[H])c([H])c1-c1c([H])nn(C([H])([H])[H])c1[H]
     RDKit          3D

 60 64  0  0  0  0  0  0  0  0999 V2000
    9.0630    0.8143   -2.5396 C   0  0  0  0  0  0  0  0  0  0  0  0
    7.8436    0.7550   -1.7228 N   0  0  0  0  0  0  0  0  0  0  0  0
    7.3442   -0.3155   -1.0853 C   0  0  0  0  0  0  0  0  0  0  0  0
    6.1856    0.0327   -0.4265 C   0  0  0  0  0  0  0  0  0  0  0  0
    6.0129    1.3904   -0.7066 C   0  0  0  0  0  0  0  0  0  0  0  0
    7.0353    1.7452   -1.4797 N   0  0  0  0  0  0  0  0  0  0  0  0
    5.3152   -0.8113    0.3893 C   0  0  0  0  0  0  0  0  0  0  0  0
    5.8749   -1.8436    1.1056 C   0  0  0  0  0  0  0  0  0  0  0  0
    5.1168   -2.6281    1.8554 N   0  0  0  0  0  0  0  0  0  0  0  0
    3.7884   -2.4388    1.9369 C   0  0  0  0  0  0  0  0  0  0  0  0
    3.0320   -3.3114    2.7558 N   0  0  0  0  0  0  0  0  0  0  0  0
    3.1431   -1.4253    1.2503 C   0  0  0  0  0  0  0  0  0  0  0  0
    3.9372   -0.6133    0.4726 C   0  0  0  0  0  0  0  0  0  0  0  0
    1.7182   -1.2284    1.3431 C   0  0  0  0  0  0  0  0  0  0  0  0
    1.0476   -1.9992    2.0680 O   0  0  0  0  0  0  0  0  0  0  0  0
    1.0527   -0.2004    0.6478 N   0  0  0  0  0  0  0  0  0  0  0  0
   -0.3788    0.0178    0.7251 C   0  0  1  0  0  0  0  0  0  0  0  0
   -0.5608    1.4273    1.2844 C   0  0  0  0  0  0  0  0  0  0  0  0
   -0.1110    2.2683    0.1076 C   0  0  0  0  0  0  0  0  0  0  0  0
   -0.4480    1.4813   -1.1135 C   0  0  0  0  0  0  0  0  0  0  0  0
   -1.0164    0.1659   -0.6376 C   0  0  2  0  0  0  0  0  0  0  0  0
   -2.3911    0.2272   -0.4415 O   0  0  0  0  0  0  0  0  0  0  0  0
   -3.0886   -0.7307   -1.1301 C   0  0  0  0  0  0  0  0  0  0  0  0
   -4.5374   -0.5454   -0.8265 C   0  0  0  0  0  0  0  0  0  0  0  0
   -5.5020   -1.3629   -1.3847 C   0  0  0  0  0  0  0  0  0  0  0  0
   -6.8454   -1.2030   -1.1123 C   0  0  0  0  0  0  0  0  0  0  0  0
   -7.2837   -0.2092   -0.2623 C   0  0  0  0  0  0  0  0  0  0  0  0
   -8.6300   -0.0339    0.0232 C   0  0  0  0  0  0  0  0  0  0  0  0
   -9.0724    0.9578    0.8723 C   0  0  0  0  0  0  0  0  0  0  0  0
   -8.1049    1.7806    1.4343 C   0  0  0  0  0  0  0  0  0  0  0  0
   -6.7804    1.6041    1.1502 C   0  0  0  0  0  0  0  0  0  0  0  0
   -6.3321    0.6139    0.3017 C   0  0  0  0  0  0  0  0  0  0  0  0
   -4.9835    0.4462    0.0225 C   0  0  0  0  0  0  0  0  0  0  0  0
    9.3299   -0.2359   -2.8095 H   0  0  0  0  0  0  0  0  0  0  0  0
    8.8685    1.3406   -3.4979 H   0  0  0  0  0  0  0  0  0  0  0  0
    9.8847    1.3100   -1.9737 H   0  0  0  0  0  0  0  0  0  0  0  0
    7.7874   -1.3027   -1.0899 H   0  0  0  0  0  0  0  0  0  0  0  0
    5.1751    1.9519   -0.3199 H   0  0  0  0  0  0  0  0  0  0  0  0
    6.9587   -2.0263    1.0614 H   0  0  0  0  0  0  0  0  0  0  0  0
    2.9579   -3.2380    3.7919 H   0  0  0  0  0  0  0  0  0  0  0  0
    2.5092   -4.0854    2.2931 H   0  0  0  0  0  0  0  0  0  0  0  0
    3.5452    0.2019   -0.1019 H   0  0  0  0  0  0  0  0  0  0  0  0
    1.5517    0.4798    0.0242 H   0  0  0  0  0  0  0  0  0  0  0  0
   -0.8964   -0.6963    1.3776 H   0  0  0  0  0  0  0  0  0  0  0  0
   -1.6104    1.6146    1.5392 H   0  0  0  0  0  0  0  0  0  0  0  0
    0.0990    1.5652    2.1676 H   0  0  0  0  0  0  0  0  0  0  0  0
    0.9934    2.4296    0.2401 H   0  0  0  0  0  0  0  0  0  0  0  0
   -0.5532    3.2844    0.1285 H   0  0  0  0  0  0  0  0  0  0  0  0
    0.5232    1.2358   -1.6345 H   0  0  0  0  0  0  0  0  0  0  0  0
   -1.0733    1.9938   -1.8425 H   0  0  0  0  0  0  0  0  0  0  0  0
   -0.8133   -0.6606   -1.3172 H   0  0  0  0  0  0  0  0  0  0  0  0
   -2.9910   -0.5332   -2.2350 H   0  0  0  0  0  0  0  0  0  0  0  0
   -2.7426   -1.7479   -0.8696 H   0  0  0  0  0  0  0  0  0  0  0  0
   -5.1436   -2.1424   -2.0528 H   0  0  0  0  0  0  0  0  0  0  0  0
   -7.5958   -1.8465   -1.5525 H   0  0  0  0  0  0  0  0  0  0  0  0
   -9.3680   -0.7055   -0.4410 H   0  0  0  0  0  0  0  0  0  0  0  0
  -10.1253    1.0786    1.0824 H   0  0  0  0  0  0  0  0  0  0  0  0
   -8.4266    2.5636    2.1019 H   0  0  0  0  0  0  0  0  0  0  0  0
   -6.0341    2.2491    1.5921 H   0  0  0  0  0  0  0  0  0  0  0  0
   -4.2544    1.0944    0.4687 H   0  0  0  0  0  0  0  0  0  0  0  0
  1  2  1  0
  2  3  1  0
  3  4  2  0
  4  5  1  0
  5  6  2  0
  4  7  1  0
  7  8  2  0
  8  9  1  0
  9 10  2  0
 10 11  1  0
 10 12  1  0
 12 13  2  0
 12 14  1  0
 14 15  2  0
 14 16  1  0
 16 17  1  0
 17 18  1  0
 18 19  1  0
 19 20  1  0
 20 21  1  0
 21 22  1  0
 22 23  1  0
 23 24  1  0
 24 25  2  0
 25 26  1  0
 26 27  2  0
 27 28  1  0
 28 29  2  0
 29 30  1  0
 30 31  2  0
 31 32  1  0
 32 33  2  0
  6  2  1  0
 13  7  1  0
 21 17  1  0
 33 24  1  0
 32 27  1  0
  1 34  1  0
  1 35  1  0
  1 36  1  0
  3 37  1  0
  5 38  1  0
  8 39  1  0
 11 40  1  0
 11 41  1  0
 13 42  1  0
 16 43  1  0
 17 44  1  1
 18 45  1  0
 18 46  1  0
 19 47  1  0
 19 48  1  0
 20 49  1  0
 20 50  1  0
 21 51  1  6
 23 52  1  0
 23 53  1  0
 25 54  1  0
 26 55  1  0
 28 56  1  0
 29 57  1  0
 30 58  1  0
 31 59  1  0
 33 60  1  0
M  END
$$$$
[H]O[C@]1([H])C([H])([H])C([H])([H])[C@@]([H])(N([H])c2nc(N([H])C([H])([H])C([H])([H])C([H])([H])C([H])([H])[H])nc([H])c2-c2nc([H])c(F)c([H])c2[H])C([H])([H])C1([H])[H]
     RDKit          3D

 52 54  0  0  0  0  0  0  0  0999 V2000
    5.3327   -3.6568   -1.1586 C   0  0  0  0  0  0  0  0  0  0  0  0
    4.4595   -2.4212   -1.2184 C   0  0  0  0  0  0  0  0  0  0  0  0
    4.6590   -1.5548   -0.0060 C   0  0  0  0  0  0  0  0  0  0  0  0
    3.8187   -0.3164   -0.0120 C   0  0  0  0  0  0  0  0  0  0  0  0
    2.4158   -0.5571   -0.0548 N   0  0  0  0  0  0  0  0  0  0  0  0
    1.5189    0.5285   -0.0644 C   0  0  0  0  0  0  0  0  0  0  0  0
    1.9100    1.8150   -0.0350 N   0  0  0  0  0  0  0  0  0  0  0  0
    1.0697    2.8402   -0.0417 C   0  0  0  0  0  0  0  0  0  0  0  0
   -0.3275    2.6204   -0.0813 C   0  0  0  0  0  0  0  0  0  0  0  0
   -0.7099    1.3144   -0.1155 C   0  0  0  0  0  0  0  0  0  0  0  0
   -2.0564    0.9139   -0.2934 N   0  0  0  0  0  0  0  0  0  0  0  0
   -2.4781   -0.4611   -0.2641 C   0  0  1  0  0  0  0  0  0  0  0  0
   -1.9163   -1.3338   -1.3258 C   0  0  0  0  0  0  0  0  0  0  0  0
   -1.4914   -2.6992   -0.7706 C   0  0  0  0  0  0  0  0  0  0  0  0
   -2.6186   -3.2641    0.0460 C   0  0  2  0  0  0  0  0  0  0  0  0
   -3.6937   -3.4756   -0.8181 O   0  0  0  0  0  0  0  0  0  0  0  0
   -3.0795   -2.3358    1.1492 C   0  0  0  0  0  0  0  0  0  0  0  0
   -2.2159   -1.0681    1.1128 C   0  0  0  0  0  0  0  0  0  0  0  0
    0.2065    0.2967   -0.1045 N   0  0  0  0  0  0  0  0  0  0  0  0
   -1.1900    3.7927   -0.0954 C   0  0  0  0  0  0  0  0  0  0  0  0
   -2.3949    3.9138    0.5143 C   0  0  0  0  0  0  0  0  0  0  0  0
   -3.1104    5.0952    0.5193 C   0  0  0  0  0  0  0  0  0  0  0  0
   -2.5517    6.1761   -0.1269 C   0  0  0  0  0  0  0  0  0  0  0  0
   -3.2562    7.3370   -0.1212 F   0  0  0  0  0  0  0  0  0  0  0  0
   -1.3259    6.0469   -0.7430 C   0  0  0  0  0  0  0  0  0  0  0  0
   -0.6801    4.8904   -0.7196 N   0  0  0  0  0  0  0  0  0  0  0  0
    6.3764   -3.3812   -0.9705 H   0  0  0  0  0  0  0  0  0  0  0  0
    5.1823   -4.2043   -2.1052 H   0  0  0  0  0  0  0  0  0  0  0  0
    4.9529   -4.3433   -0.3483 H   0  0  0  0  0  0  0  0  0  0  0  0
    4.7681   -1.8437   -2.1232 H   0  0  0  0  0  0  0  0  0  0  0  0
    3.4307   -2.7545   -1.3643 H   0  0  0  0  0  0  0  0  0  0  0  0
    4.4534   -2.1720    0.8920 H   0  0  0  0  0  0  0  0  0  0  0  0
    5.7289   -1.2749    0.0391 H   0  0  0  0  0  0  0  0  0  0  0  0
    4.0525    0.3018    0.8749 H   0  0  0  0  0  0  0  0  0  0  0  0
    4.1452    0.3100   -0.8938 H   0  0  0  0  0  0  0  0  0  0  0  0
    2.0520   -1.5195   -0.0788 H   0  0  0  0  0  0  0  0  0  0  0  0
    1.3971    3.8677   -0.0179 H   0  0  0  0  0  0  0  0  0  0  0  0
   -2.7858    1.6048   -0.4989 H   0  0  0  0  0  0  0  0  0  0  0  0
   -3.5946   -0.4814   -0.3618 H   0  0  0  0  0  0  0  0  0  0  0  0
   -1.0846   -0.9471   -1.9067 H   0  0  0  0  0  0  0  0  0  0  0  0
   -2.7108   -1.5872   -2.0935 H   0  0  0  0  0  0  0  0  0  0  0  0
   -0.5523   -2.6446   -0.2026 H   0  0  0  0  0  0  0  0  0  0  0  0
   -1.3413   -3.3556   -1.6421 H   0  0  0  0  0  0  0  0  0  0  0  0
   -2.3133   -4.2437    0.4615 H   0  0  0  0  0  0  0  0  0  0  0  0
   -3.7507   -4.3896   -1.1509 H   0  0  0  0  0  0  0  0  0  0  0  0
   -2.9827   -2.7872    2.1391 H   0  0  0  0  0  0  0  0  0  0  0  0
   -4.1248   -1.9907    0.9975 H   0  0  0  0  0  0  0  0  0  0  0  0
   -2.5829   -0.3832    1.8779 H   0  0  0  0  0  0  0  0  0  0  0  0
   -1.1759   -1.3691    1.2614 H   0  0  0  0  0  0  0  0  0  0  0  0
   -2.8376    3.0854    1.0673 H   0  0  0  0  0  0  0  0  0  0  0  0
   -4.0687    5.1427    1.0180 H   0  0  0  0  0  0  0  0  0  0  0  0
   -0.9279    6.9234   -1.2366 H   0  0  0  0  0  0  0  0  0  0  0  0
  1  2  1  0
  2  3  1  0
  3  4  1  0
  4  5  1  0
  5  6  1  0
  6  7  2  0
  7  8  1  0
  8  9  2  0
  9 10  1  0
 10 11  1  0
 11 12  1  0
 12 13  1  0
 13 14  1  0
 14 15  1  0
 15 16  1  0
 15 17  1  0
 17 18  1  0
 10 19  2  0
  9 20  1  0
 20 21  2  0
 21 22  1  0
 22 23  2  0
 23 24  1  0
 23 25  1  0
 25 26  2  0
 19  6  1  0
 26 20  1  0
 18 12  1  0
  1 27  1  0
  1 28  1  0
  1 29  1  0
  2 30  1  0
  2 31  1  0
  3 32  1  0
  3 33  1  0
  4 34  1  0
  4 35  1  0
  5 36  1  0
  8 37  1  0
 11 38  1  0
 12 39  1  6
 13 40  1  0
 13 41  1  0
 14 42  1  0
 14 43  1  0
 15 44  1  1
 16 45  1  0
 17 46  1  0
 17 47  1  0
 18 48  1  0
 18 49  1  0
 21 50  1  0
 22 51  1  0
 25 52  1  0
M  END
$$$$
[H]c1nc(N([H])[H])c(C(=O)N([H])[C@@]2([H])C([H])([H])C([H])([H])C([H])([H])[C@]2([H])OC([H])([H])c2c([H])c([H])c([H])c(C([H])([H])[H])c2[H])c([H])c1-c1c([H])c([H])c([H])c(C([H])([H])N2C([H])([H])C([H])([H])N(C([H])([H])[H])C([H])([H])C2([H])[H])c1[H]
     RDKit          3D

 77 81  0  0  0  0  0  0  0  0999 V2000
   -5.4998    0.8201    4.5724 C   0  0  0  0  0  0  0  0  0  0  0  0
   -4.6470    0.5311    3.4302 N   0  0  0  0  0  0  0  0  0  0  0  0
   -5.3653    0.6620    2.1923 C   0  0  0  0  0  0  0  0  0  0  0  0
   -5.2748    2.1283    1.7541 C   0  0  0  0  0  0  0  0  0  0  0  0
   -3.9509    2.4169    1.3246 N   0  0  0  0  0  0  0  0  0  0  0  0
   -3.7239    2.5424   -0.0686 C   0  0  0  0  0  0  0  0  0  0  0  0
   -4.0368    1.3666   -0.8993 C   0  0  0  0  0  0  0  0  0  0  0  0
   -5.3060    1.2753   -1.4298 C   0  0  0  0  0  0  0  0  0  0  0  0
   -5.6320    0.1907   -2.2211 C   0  0  0  0  0  0  0  0  0  0  0  0
   -4.6938   -0.7636   -2.4603 C   0  0  0  0  0  0  0  0  0  0  0  0
   -3.4087   -0.7171   -1.9525 C   0  0  0  0  0  0  0  0  0  0  0  0
   -3.1012    0.3695   -1.1661 C   0  0  0  0  0  0  0  0  0  0  0  0
   -2.4356   -1.7780   -2.2595 C   0  0  0  0  0  0  0  0  0  0  0  0
   -2.8447   -3.0782   -2.4789 C   0  0  0  0  0  0  0  0  0  0  0  0
   -1.9770   -4.0649   -2.7581 N   0  0  0  0  0  0  0  0  0  0  0  0
   -0.6553   -3.8323   -2.8379 C   0  0  0  0  0  0  0  0  0  0  0  0
    0.2873   -4.8382   -3.1315 N   0  0  0  0  0  0  0  0  0  0  0  0
   -0.1823   -2.5304   -2.6238 C   0  0  0  0  0  0  0  0  0  0  0  0
   -1.0817   -1.5170   -2.3368 C   0  0  0  0  0  0  0  0  0  0  0  0
    1.2466   -2.3096   -2.7134 C   0  0  0  0  0  0  0  0  0  0  0  0
    2.0187   -3.2618   -2.9939 O   0  0  0  0  0  0  0  0  0  0  0  0
    1.8636   -1.0519   -2.4987 N   0  0  0  0  0  0  0  0  0  0  0  0
    3.3004   -0.8656   -2.5997 C   0  0  1  0  0  0  0  0  0  0  0  0
    3.5682    0.2927   -3.5306 C   0  0  0  0  0  0  0  0  0  0  0  0
    4.7357    1.0552   -2.9321 C   0  0  0  0  0  0  0  0  0  0  0  0
    5.1553    0.3092   -1.6783 C   0  0  0  0  0  0  0  0  0  0  0  0
    3.9207   -0.4887   -1.2743 C   0  0  2  0  0  0  0  0  0  0  0  0
    4.1450   -1.5137   -0.4312 O   0  0  0  0  0  0  0  0  0  0  0  0
    3.6084   -1.4783    0.8223 C   0  0  0  0  0  0  0  0  0  0  0  0
    4.1273   -0.2957    1.6155 C   0  0  0  0  0  0  0  0  0  0  0  0
    3.2862    0.7323    1.9368 C   0  0  0  0  0  0  0  0  0  0  0  0
    3.7838    1.7997    2.6523 C   0  0  0  0  0  0  0  0  0  0  0  0
    5.1045    1.8472    3.0458 C   0  0  0  0  0  0  0  0  0  0  0  0
    5.9495    0.7925    2.7105 C   0  0  0  0  0  0  0  0  0  0  0  0
    7.3908    0.8435    3.1369 C   0  0  0  0  0  0  0  0  0  0  0  0
    5.4381   -0.2564    2.0020 C   0  0  0  0  0  0  0  0  0  0  0  0
   -2.9711    1.6466    2.0176 C   0  0  0  0  0  0  0  0  0  0  0  0
   -3.4630    1.3563    3.4327 C   0  0  0  0  0  0  0  0  0  0  0  0
   -6.5036    1.1595    4.2331 H   0  0  0  0  0  0  0  0  0  0  0  0
   -5.6240   -0.1145    5.1440 H   0  0  0  0  0  0  0  0  0  0  0  0
   -5.0941    1.6301    5.2154 H   0  0  0  0  0  0  0  0  0  0  0  0
   -4.8766    0.0071    1.4435 H   0  0  0  0  0  0  0  0  0  0  0  0
   -6.4123    0.3538    2.2757 H   0  0  0  0  0  0  0  0  0  0  0  0
   -6.0737    2.4171    1.0652 H   0  0  0  0  0  0  0  0  0  0  0  0
   -5.4603    2.7009    2.7123 H   0  0  0  0  0  0  0  0  0  0  0  0
   -4.3700    3.4073   -0.4185 H   0  0  0  0  0  0  0  0  0  0  0  0
   -2.6756    2.8883   -0.2337 H   0  0  0  0  0  0  0  0  0  0  0  0
   -6.0786    2.0240   -1.2617 H   0  0  0  0  0  0  0  0  0  0  0  0
   -6.6377    0.0850   -2.6598 H   0  0  0  0  0  0  0  0  0  0  0  0
   -4.9895   -1.6086   -3.0951 H   0  0  0  0  0  0  0  0  0  0  0  0
   -2.1043    0.4565   -0.7499 H   0  0  0  0  0  0  0  0  0  0  0  0
   -3.9274   -3.2615   -2.4128 H   0  0  0  0  0  0  0  0  0  0  0  0
    0.7114   -5.3713   -2.3441 H   0  0  0  0  0  0  0  0  0  0  0  0
    0.5937   -5.0886   -4.0945 H   0  0  0  0  0  0  0  0  0  0  0  0
   -0.7255   -0.4953   -2.1685 H   0  0  0  0  0  0  0  0  0  0  0  0
    1.2376   -0.2468   -2.2624 H   0  0  0  0  0  0  0  0  0  0  0  0
    3.7153   -1.8352   -2.9681 H   0  0  0  0  0  0  0  0  0  0  0  0
    3.7312   -0.0059   -4.5714 H   0  0  0  0  0  0  0  0  0  0  0  0
    2.7051    1.0122   -3.5484 H   0  0  0  0  0  0  0  0  0  0  0  0
    5.5822    1.0700   -3.6503 H   0  0  0  0  0  0  0  0  0  0  0  0
    4.4815    2.1144   -2.7243 H   0  0  0  0  0  0  0  0  0  0  0  0
    5.4183    1.0734   -0.9214 H   0  0  0  0  0  0  0  0  0  0  0  0
    6.0473   -0.3202   -1.8333 H   0  0  0  0  0  0  0  0  0  0  0  0
    3.2615    0.2530   -0.7861 H   0  0  0  0  0  0  0  0  0  0  0  0
    3.7110   -2.4005    1.3975 H   0  0  0  0  0  0  0  0  0  0  0  0
    2.5171   -1.3086    0.7221 H   0  0  0  0  0  0  0  0  0  0  0  0
    2.2231    0.7263    1.6419 H   0  0  0  0  0  0  0  0  0  0  0  0
    3.1537    2.6351    2.9274 H   0  0  0  0  0  0  0  0  0  0  0  0
    5.4833    2.6983    3.6119 H   0  0  0  0  0  0  0  0  0  0  0  0
    7.7635   -0.1518    3.4607 H   0  0  0  0  0  0  0  0  0  0  0  0
    7.4761    1.5619    3.9520 H   0  0  0  0  0  0  0  0  0  0  0  0
    8.0116    1.1695    2.2640 H   0  0  0  0  0  0  0  0  0  0  0  0
    6.1228   -1.0803    1.7492 H   0  0  0  0  0  0  0  0  0  0  0  0
   -2.0372    2.2431    2.1189 H   0  0  0  0  0  0  0  0  0  0  0  0
   -2.7217    0.7055    1.5054 H   0  0  0  0  0  0  0  0  0  0  0  0
   -2.6414    0.8679    3.9836 H   0  0  0  0  0  0  0  0  0  0  0  0
   -3.6730    2.3324    3.9110 H   0  0  0  0  0  0  0  0  0  0  0  0
  1  2  1  0
  2  3  1  0
  3  4  1  0
  4  5  1  0
  5  6  1  0
  6  7  1  0
  7  8  2  0
  8  9  1  0
  9 10  2  0
 10 11  1  0
 11 12  2  0
 11 13  1  0
 13 14  2  0
 14 15  1  0
 15 16  2  0
 16 17  1  0
 16 18  1  0
 18 19  2  0
 18 20  1  0
 20 21  2  0
 20 22  1  0
 22 23  1  0
 23 24  1  0
 24 25  1  0
 25 26  1  0
 26 27  1  0
 27 28  1  0
 28 29  1  0
 29 30  1  0
 30 31  2  0
 31 32  1  0
 32 33  2  0
 33 34  1  0
 34 35  1  0
 34 36  2  0
  5 37  1  0
 37 38  1  0
 38  2  1  0
 12  7  1  0
 19 13  1  0
 27 23  1  0
 36 30  1  0
  1 39  1  0
  1 40  1  0
  1 41  1  0
  3 42  1  0
  3 43  1  0
  4 44  1  0
  4 45  1  0
  6 46  1  0
  6 47  1  0
  8 48  1  0
  9 49  1  0
 10 50  1  0
 12 51  1  0
 14 52  1  0
 17 53  1  0
 17 54  1  0
 19 55  1  0
 22 56  1  0
 23 57  1  6
 24 58  1  0
 24 59  1  0
 25 60  1  0
 25 61  1  0
 26 62  1  0
 26 63  1  0
 27 64  1  1
 29 65  1  0
 29 66  1  0
 31 67  1  0
 32 68  1  0
 33 69  1  0
 35 70  1  0
 35 71  1  0
 35 72  1  0
 36 73  1  0
 37 74  1  0
 37 75  1  0
 38 76  1  0
 38 77  1  0
M  END
$$$$
[H]OC1([H])C([H])([H])C([H])([H])C([H])(n2c([H])c(-c3c([H])c([H])c(N([H])C4([H])C([H])([H])C([H])([H])N([H])C([H])([H])C4([H])[H])c([H])c3[H])c3c([H])nc(N([H])C([H])([H])C([H])([H])C([H])([H])C([H])([H])[H])nc32)C([H])([H])C1([H])[H]
     RDKit          3D

 72 76  0  0  0  0  0  0  0  0999 V2000
   -7.1432    4.6943   -2.0395 C   0  0  0  0  0  0  0  0  0  0  0  0
   -5.6736    4.7164   -1.7350 C   0  0  0  0  0  0  0  0  0  0  0  0
   -5.2106    3.5154   -0.9276 C   0  0  0  0  0  0  0  0  0  0  0  0
   -5.4583    2.2206   -1.6444 C   0  0  0  0  0  0  0  0  0  0  0  0
   -5.0503    1.0555   -0.9206 N   0  0  0  0  0  0  0  0  0  0  0  0
   -3.7194    0.7693   -0.5877 C   0  0  0  0  0  0  0  0  0  0  0  0
   -2.7177    1.5846   -0.9469 N   0  0  0  0  0  0  0  0  0  0  0  0
   -1.4364    1.3710   -0.6448 C   0  0  0  0  0  0  0  0  0  0  0  0
   -1.0885    0.2415    0.0866 C   0  0  0  0  0  0  0  0  0  0  0  0
    0.0588   -0.2887    0.5668 C   0  0  0  0  0  0  0  0  0  0  0  0
   -0.2533   -1.4596    1.2349 C   0  0  0  0  0  0  0  0  0  0  0  0
   -1.6037   -1.6096    1.1406 N   0  0  0  0  0  0  0  0  0  0  0  0
   -2.2202   -2.7491    1.7504 C   0  0  0  0  0  0  0  0  0  0  0  0
   -1.5440   -3.9705    1.1163 C   0  0  0  0  0  0  0  0  0  0  0  0
   -2.3691   -5.2176    1.2754 C   0  0  0  0  0  0  0  0  0  0  0  0
   -3.7196   -5.1232    0.5922 C   0  0  0  0  0  0  0  0  0  0  0  0
   -3.7726   -5.8606   -0.5705 O   0  0  0  0  0  0  0  0  0  0  0  0
   -4.0339   -3.6385    0.3525 C   0  0  0  0  0  0  0  0  0  0  0  0
   -3.6718   -2.9051    1.6357 C   0  0  0  0  0  0  0  0  0  0  0  0
   -2.1249   -0.5975    0.4547 C   0  0  0  0  0  0  0  0  0  0  0  0
   -3.3968   -0.3496    0.1328 N   0  0  0  0  0  0  0  0  0  0  0  0
    1.4073    0.2918    0.4113 C   0  0  0  0  0  0  0  0  0  0  0  0
    2.4793   -0.4907    0.0698 C   0  0  0  0  0  0  0  0  0  0  0  0
    3.7529    0.0627   -0.0534 C   0  0  0  0  0  0  0  0  0  0  0  0
    3.9888    1.4014    0.1580 C   0  0  0  0  0  0  0  0  0  0  0  0
    5.2300    2.0541    0.0980 N   0  0  0  0  0  0  0  0  0  0  0  0
    6.5300    1.5235    0.0386 C   0  0  0  0  0  0  0  0  0  0  0  0
    6.8665    0.8562   -1.2517 C   0  0  0  0  0  0  0  0  0  0  0  0
    8.4121    0.6629   -1.2002 C   0  0  0  0  0  0  0  0  0  0  0  0
    8.5981   -0.3779   -0.2053 N   0  0  0  0  0  0  0  0  0  0  0  0
    8.3085    0.1737    1.0931 C   0  0  0  0  0  0  0  0  0  0  0  0
    6.8442    0.5817    1.2072 C   0  0  0  0  0  0  0  0  0  0  0  0
    2.8978    2.2242    0.5091 C   0  0  0  0  0  0  0  0  0  0  0  0
    1.6627    1.6285    0.6185 C   0  0  0  0  0  0  0  0  0  0  0  0
   -7.7719    4.3481   -1.1940 H   0  0  0  0  0  0  0  0  0  0  0  0
   -7.3788    4.1016   -2.9306 H   0  0  0  0  0  0  0  0  0  0  0  0
   -7.4391    5.7538   -2.2607 H   0  0  0  0  0  0  0  0  0  0  0  0
   -5.4403    5.6206   -1.1330 H   0  0  0  0  0  0  0  0  0  0  0  0
   -5.1499    4.7673   -2.7126 H   0  0  0  0  0  0  0  0  0  0  0  0
   -4.1398    3.6313   -0.6895 H   0  0  0  0  0  0  0  0  0  0  0  0
   -5.7833    3.5049    0.0347 H   0  0  0  0  0  0  0  0  0  0  0  0
   -4.8555    2.2302   -2.6011 H   0  0  0  0  0  0  0  0  0  0  0  0
   -6.5260    2.1506   -1.9703 H   0  0  0  0  0  0  0  0  0  0  0  0
   -5.7932    0.3746   -0.6211 H   0  0  0  0  0  0  0  0  0  0  0  0
   -0.6585    2.0596   -0.9639 H   0  0  0  0  0  0  0  0  0  0  0  0
    0.4817   -2.0885    1.7163 H   0  0  0  0  0  0  0  0  0  0  0  0
   -1.9294   -2.8052    2.8427 H   0  0  0  0  0  0  0  0  0  0  0  0
   -1.3851   -3.7920    0.0333 H   0  0  0  0  0  0  0  0  0  0  0  0
   -0.5860   -4.1583    1.6424 H   0  0  0  0  0  0  0  0  0  0  0  0
   -1.7993   -6.0167    0.7292 H   0  0  0  0  0  0  0  0  0  0  0  0
   -2.4270   -5.5616    2.3161 H   0  0  0  0  0  0  0  0  0  0  0  0
   -4.4607   -5.5188    1.3374 H   0  0  0  0  0  0  0  0  0  0  0  0
   -4.7501   -5.9238   -0.8069 H   0  0  0  0  0  0  0  0  0  0  0  0
   -3.4430   -3.3235   -0.5202 H   0  0  0  0  0  0  0  0  0  0  0  0
   -5.1195   -3.5927    0.2049 H   0  0  0  0  0  0  0  0  0  0  0  0
   -3.9866   -3.6265    2.4565 H   0  0  0  0  0  0  0  0  0  0  0  0
   -4.3028   -2.0296    1.8293 H   0  0  0  0  0  0  0  0  0  0  0  0
    2.3167   -1.5560   -0.1041 H   0  0  0  0  0  0  0  0  0  0  0  0
    4.5542   -0.5965   -0.3249 H   0  0  0  0  0  0  0  0  0  0  0  0
    5.2041    3.1477    0.0773 H   0  0  0  0  0  0  0  0  0  0  0  0
    7.2898    2.3725    0.2255 H   0  0  0  0  0  0  0  0  0  0  0  0
    6.6062    1.5059   -2.1092 H   0  0  0  0  0  0  0  0  0  0  0  0
    6.4517   -0.1444   -1.3151 H   0  0  0  0  0  0  0  0  0  0  0  0
    8.8065    0.3960   -2.1868 H   0  0  0  0  0  0  0  0  0  0  0  0
    8.8056    1.6138   -0.7928 H   0  0  0  0  0  0  0  0  0  0  0  0
    9.5568   -0.7694   -0.2007 H   0  0  0  0  0  0  0  0  0  0  0  0
    8.9169    1.0605    1.3548 H   0  0  0  0  0  0  0  0  0  0  0  0
    8.4875   -0.5722    1.8850 H   0  0  0  0  0  0  0  0  0  0  0  0
    6.2452   -0.3169    1.2282 H   0  0  0  0  0  0  0  0  0  0  0  0
    6.7534    1.2025    2.1209 H   0  0  0  0  0  0  0  0  0  0  0  0
    3.0123    3.2853    0.6915 H   0  0  0  0  0  0  0  0  0  0  0  0
    0.8079    2.2744    0.8966 H   0  0  0  0  0  0  0  0  0  0  0  0
  1  2  1  0
  2  3  1  0
  3  4  1  0
  4  5  1  0
  5  6  1  0
  6  7  2  0
  7  8  1  0
  8  9  2  0
  9 10  1  0
 10 11  2  0
 11 12  1  0
 12 13  1  0
 13 14  1  0
 14 15  1  0
 15 16  1  0
 16 17  1  0
 16 18  1  0
 18 19  1  0
 12 20  1  0
 20 21  2  0
 10 22  1  0
 22 23  2  0
 23 24  1  0
 24 25  2  0
 25 26  1  0
 26 27  1  0
 27 28  1  0
 28 29  1  0
 29 30  1  0
 30 31  1  0
 31 32  1  0
 25 33  1  0
 33 34  2  0
 21  6  1  0
 34 22  1  0
 20  9  1  0
 32 27  1  0
 19 13  1  0
  1 35  1  0
  1 36  1  0
  1 37  1  0
  2 38  1  0
  2 39  1  0
  3 40  1  0
  3 41  1  0
  4 42  1  0
  4 43  1  0
  5 44  1  0
  8 45  1  0
 11 46  1  0
 13 47  1  0
 14 48  1  0
 14 49  1  0
 15 50  1  0
 15 51  1  0
 16 52  1  0
 17 53  1  0
 18 54  1  0
 18 55  1  0
 19 56  1  0
 19 57  1  0
 23 58  1  0
 24 59  1  0
 26 60  1  0
 27 61  1  0
 28 62  1  0
 28 63  1  0
 29 64  1  0
 29 65  1  0
 30 66  1  0
 31 67  1  0
 31 68  1  0
 32 69  1  0
 32 70  1  0
 33 71  1  0
 34 72  1  0
M  END
$$$$
[H]OC1([H])C([H])([H])C([H])([H])C([H])([H])n2c([H])c(-c3c([H])c([H])c(C([H])([H])N4C([H])([H])C([H])([H])N(C([H])([H])[H])C([H])([H])C4([H])[H])c([H])c3[H])c3c([H])nc(nc32)N([H])C([H])([H])C([H])([H])C([H])([H])C([H])([H])C1([H])[H]
     RDKit          3D

 72 76  0  0  0  0  0  0  0  0999 V2000
    9.5683    0.0462    1.7054 C   0  0  0  0  0  0  0  0  0  0  0  0
    8.3679    0.2226    0.8742 N   0  0  0  0  0  0  0  0  0  0  0  0
    7.5682   -0.9588    1.0239 C   0  0  0  0  0  0  0  0  0  0  0  0
    6.3190   -0.8651    0.1814 C   0  0  0  0  0  0  0  0  0  0  0  0
    6.4142    0.0404   -0.9150 N   0  0  0  0  0  0  0  0  0  0  0  0
    5.6456    1.2355   -0.8123 C   0  0  0  0  0  0  0  0  0  0  0  0
    4.1982    0.9159   -0.7209 C   0  0  0  0  0  0  0  0  0  0  0  0
    3.6653   -0.2866   -1.1071 C   0  0  0  0  0  0  0  0  0  0  0  0
    2.3133   -0.5282   -0.9952 C   0  0  0  0  0  0  0  0  0  0  0  0
    1.4322    0.4055   -0.4984 C   0  0  0  0  0  0  0  0  0  0  0  0
    1.9454    1.6196   -0.1049 C   0  0  0  0  0  0  0  0  0  0  0  0
    3.3010    1.8646   -0.2159 C   0  0  0  0  0  0  0  0  0  0  0  0
    0.0216    0.0660   -0.4152 C   0  0  0  0  0  0  0  0  0  0  0  0
   -0.5429   -1.1068    0.0594 C   0  0  0  0  0  0  0  0  0  0  0  0
   -1.8868   -1.0316   -0.0310 N   0  0  0  0  0  0  0  0  0  0  0  0
   -2.9424   -1.9948    0.3228 C   0  0  0  0  0  0  0  0  0  0  0  0
   -3.4494   -1.8400    1.7099 C   0  0  0  0  0  0  0  0  0  0  0  0
   -4.7644   -1.1516    1.8706 C   0  0  0  0  0  0  0  0  0  0  0  0
   -5.7868   -1.6854    0.9270 C   0  0  0  0  0  0  0  0  0  0  0  0
   -5.7221   -3.0771    0.9672 O   0  0  0  0  0  0  0  0  0  0  0  0
   -7.2013   -1.2861    1.2841 C   0  0  0  0  0  0  0  0  0  0  0  0
   -7.6140    0.0442    0.6936 C   0  0  0  0  0  0  0  0  0  0  0  0
   -7.5779    0.1032   -0.7920 C   0  0  0  0  0  0  0  0  0  0  0  0
   -7.0826    1.3947   -1.3762 C   0  0  0  0  0  0  0  0  0  0  0  0
   -5.9079    1.9982   -0.6942 C   0  0  0  0  0  0  0  0  0  0  0  0
   -4.8011    2.3348   -1.5691 N   0  0  0  0  0  0  0  0  0  0  0  0
   -3.4752    1.8708   -1.3305 C   0  0  0  0  0  0  0  0  0  0  0  0
   -2.3831    2.6075   -1.5976 N   0  0  0  0  0  0  0  0  0  0  0  0
   -1.1256    2.1576   -1.3537 C   0  0  0  0  0  0  0  0  0  0  0  0
   -1.0311    0.8919   -0.8122 C   0  0  0  0  0  0  0  0  0  0  0  0
   -2.1514    0.1557   -0.5473 C   0  0  0  0  0  0  0  0  0  0  0  0
   -3.3649    0.6435   -0.8054 N   0  0  0  0  0  0  0  0  0  0  0  0
    7.7096    0.1837   -1.4884 C   0  0  0  0  0  0  0  0  0  0  0  0
    8.8296    0.2918   -0.4995 C   0  0  0  0  0  0  0  0  0  0  0  0
    9.2967    0.2408    2.7439 H   0  0  0  0  0  0  0  0  0  0  0  0
    9.8908   -1.0105    1.5982 H   0  0  0  0  0  0  0  0  0  0  0  0
   10.3640    0.7621    1.3824 H   0  0  0  0  0  0  0  0  0  0  0  0
    7.2801   -1.0538    2.1100 H   0  0  0  0  0  0  0  0  0  0  0  0
    8.1741   -1.8487    0.7439 H   0  0  0  0  0  0  0  0  0  0  0  0
    5.4580   -0.6390    0.8489 H   0  0  0  0  0  0  0  0  0  0  0  0
    6.1347   -1.8909   -0.2195 H   0  0  0  0  0  0  0  0  0  0  0  0
    5.8938    1.8527    0.0745 H   0  0  0  0  0  0  0  0  0  0  0  0
    5.8124    1.8250   -1.7387 H   0  0  0  0  0  0  0  0  0  0  0  0
    4.2871   -1.0644   -1.5080 H   0  0  0  0  0  0  0  0  0  0  0  0
    1.9357   -1.5041   -1.3167 H   0  0  0  0  0  0  0  0  0  0  0  0
    1.2543    2.3514    0.2850 H   0  0  0  0  0  0  0  0  0  0  0  0
    3.6733    2.8235    0.0999 H   0  0  0  0  0  0  0  0  0  0  0  0
    0.0071   -1.9568    0.4450 H   0  0  0  0  0  0  0  0  0  0  0  0
   -3.6792   -1.9749   -0.4820 H   0  0  0  0  0  0  0  0  0  0  0  0
   -2.4733   -3.0300    0.2433 H   0  0  0  0  0  0  0  0  0  0  0  0
   -3.5746   -2.8749    2.1529 H   0  0  0  0  0  0  0  0  0  0  0  0
   -2.6413   -1.3657    2.3192 H   0  0  0  0  0  0  0  0  0  0  0  0
   -5.0815   -1.3602    2.9432 H   0  0  0  0  0  0  0  0  0  0  0  0
   -4.6322   -0.0507    1.8444 H   0  0  0  0  0  0  0  0  0  0  0  0
   -5.5216   -1.3763   -0.1031 H   0  0  0  0  0  0  0  0  0  0  0  0
   -6.5724   -3.3988    0.5479 H   0  0  0  0  0  0  0  0  0  0  0  0
   -7.2325   -1.1695    2.3846 H   0  0  0  0  0  0  0  0  0  0  0  0
   -7.9193   -2.0850    1.0254 H   0  0  0  0  0  0  0  0  0  0  0  0
   -7.0848    0.8333    1.2319 H   0  0  0  0  0  0  0  0  0  0  0  0
   -8.6949    0.1626    1.0131 H   0  0  0  0  0  0  0  0  0  0  0  0
   -7.0151   -0.7202   -1.2807 H   0  0  0  0  0  0  0  0  0  0  0  0
   -8.6268   -0.0190   -1.2086 H   0  0  0  0  0  0  0  0  0  0  0  0
   -6.7917    1.1842   -2.4459 H   0  0  0  0  0  0  0  0  0  0  0  0
   -7.9445    2.1198   -1.4755 H   0  0  0  0  0  0  0  0  0  0  0  0
   -5.5057    1.3294    0.0888 H   0  0  0  0  0  0  0  0  0  0  0  0
   -6.2567    2.9454   -0.1939 H   0  0  0  0  0  0  0  0  0  0  0  0
   -4.9548    2.9376   -2.4048 H   0  0  0  0  0  0  0  0  0  0  0  0
   -0.2379    2.7186   -1.5550 H   0  0  0  0  0  0  0  0  0  0  0  0
    7.8508   -0.6585   -2.2205 H   0  0  0  0  0  0  0  0  0  0  0  0
    7.6895    1.1170   -2.1234 H   0  0  0  0  0  0  0  0  0  0  0  0
    9.4837   -0.6147   -0.6635 H   0  0  0  0  0  0  0  0  0  0  0  0
    9.4660    1.1812   -0.6464 H   0  0  0  0  0  0  0  0  0  0  0  0
  1  2  1  0
  2  3  1  0
  3  4  1  0
  4  5  1  0
  5  6  1  0
  6  7  1  0
  7  8  2  0
  8  9  1  0
  9 10  2  0
 10 11  1  0
 11 12  2  0
 10 13  1  0
 13 14  2  0
 14 15  1  0
 15 16  1  0
 16 17  1  0
 17 18  1  0
 18 19  1  0
 19 20  1  0
 19 21  1  0
 21 22  1  0
 22 23  1  0
 23 24  1  0
 24 25  1  0
 25 26  1  0
 26 27  1  0
 27 28  2  0
 28 29  1  0
 29 30  2  0
 30 31  1  0
 31 32  2  0
  5 33  1  0
 33 34  1  0
 34  2  1  0
 12  7  1  0
 30 13  1  0
 31 15  1  0
 32 27  1  0
  1 35  1  0
  1 36  1  0
  1 37  1  0
  3 38  1  0
  3 39  1  0
  4 40  1  0
  4 41  1  0
  6 42  1  0
  6 43  1  0
  8 44  1  0
  9 45  1  0
 11 46  1  0
 12 47  1  0
 14 48  1  0
 16 49  1  0
 16 50  1  0
 17 51  1  0
 17 52  1  0
 18 53  1  0
 18 54  1  0
 19 55  1  0
 20 56  1  0
 21 57  1  0
 21 58  1  0
 22 59  1  0
 22 60  1  0
 23 61  1  0
 23 62  1  0
 24 63  1  0
 24 64  1  0
 25 65  1  0
 25 66  1  0
 26 67  1  0
 29 68  1  0
 33 69  1  0
 33 70  1  0
 34 71  1  0
 34 72  1  0
M  END
$$$$
[H]OC1([H])C([H])([H])C([H])([H])C([H])(N([H])c2nc(N([H])C([H])([H])C([H])([H])C([H])([H])C([H])([H])[H])nc([H])c2-c2nc([H])c(C([H])([H])C([H])([H])N3C([H])([H])C([H])([H])N(C([H])([H])[H])C([H])([H])C3([H])[H])c([H])c2[H])C([H])([H])C1([H])[H]
     RDKit          3D

 75 78  0  0  0  0  0  0  0  0999 V2000
   -9.1561    3.6417   -0.3311 C   0  0  0  0  0  0  0  0  0  0  0  0
   -7.6606    3.4432   -0.5168 C   0  0  0  0  0  0  0  0  0  0  0  0
   -7.0008    3.8604    0.7796 C   0  0  0  0  0  0  0  0  0  0  0  0
   -5.4963    3.6872    0.6637 C   0  0  0  0  0  0  0  0  0  0  0  0
   -5.1632    2.3107    0.3963 N   0  0  0  0  0  0  0  0  0  0  0  0
   -3.7938    1.9429    0.2428 C   0  0  0  0  0  0  0  0  0  0  0  0
   -2.8507    2.8985    0.3526 N   0  0  0  0  0  0  0  0  0  0  0  0
   -1.5712    2.5931    0.2123 C   0  0  0  0  0  0  0  0  0  0  0  0
   -1.1217    1.2763   -0.0554 C   0  0  0  0  0  0  0  0  0  0  0  0
   -2.0912    0.3482   -0.1535 C   0  0  0  0  0  0  0  0  0  0  0  0
   -1.8086   -1.0429   -0.2826 N   0  0  0  0  0  0  0  0  0  0  0  0
   -2.9359   -1.9848   -0.4484 C   0  0  0  0  0  0  0  0  0  0  0  0
   -3.7686   -1.8978    0.7857 C   0  0  0  0  0  0  0  0  0  0  0  0
   -4.0875   -3.3194    1.2704 C   0  0  0  0  0  0  0  0  0  0  0  0
   -4.6269   -4.0587    0.0442 C   0  0  0  0  0  0  0  0  0  0  0  0
   -5.3740   -5.1554    0.3990 O   0  0  0  0  0  0  0  0  0  0  0  0
   -3.4252   -4.4108   -0.8114 C   0  0  0  0  0  0  0  0  0  0  0  0
   -2.3692   -3.3300   -0.7483 C   0  0  0  0  0  0  0  0  0  0  0  0
   -3.4214    0.6856   -0.0065 N   0  0  0  0  0  0  0  0  0  0  0  0
    0.2977    1.0334   -0.1804 C   0  0  0  0  0  0  0  0  0  0  0  0
    0.8991    0.1675   -1.0499 C   0  0  0  0  0  0  0  0  0  0  0  0
    2.2917    0.0532   -1.1765 C   0  0  0  0  0  0  0  0  0  0  0  0
    3.1268    0.8317   -0.4099 C   0  0  0  0  0  0  0  0  0  0  0  0
    4.6089    0.7721   -0.4863 C   0  0  0  0  0  0  0  0  0  0  0  0
    5.1655   -0.2590    0.4861 C   0  0  0  0  0  0  0  0  0  0  0  0
    6.6067   -0.2583    0.3594 N   0  0  0  0  0  0  0  0  0  0  0  0
    7.2279   -1.2205    1.2467 C   0  0  0  0  0  0  0  0  0  0  0  0
    8.7217   -1.1883    1.1733 C   0  0  0  0  0  0  0  0  0  0  0  0
    9.2104   -0.6691   -0.0872 N   0  0  0  0  0  0  0  0  0  0  0  0
    9.4201    0.7649   -0.0370 C   0  0  0  0  0  0  0  0  0  0  0  0
    8.3333   -1.0105   -1.1888 C   0  0  0  0  0  0  0  0  0  0  0  0
    6.9489   -0.4403   -1.0196 C   0  0  0  0  0  0  0  0  0  0  0  0
    2.5014    1.7000    0.4597 C   0  0  0  0  0  0  0  0  0  0  0  0
    1.1754    1.7904    0.5632 N   0  0  0  0  0  0  0  0  0  0  0  0
   -9.6963    2.9645   -1.0142 H   0  0  0  0  0  0  0  0  0  0  0  0
   -9.4126    4.7008   -0.5929 H   0  0  0  0  0  0  0  0  0  0  0  0
   -9.4853    3.4229    0.6935 H   0  0  0  0  0  0  0  0  0  0  0  0
   -7.2739    4.0599   -1.3488 H   0  0  0  0  0  0  0  0  0  0  0  0
   -7.4310    2.3906   -0.7310 H   0  0  0  0  0  0  0  0  0  0  0  0
   -7.4092    3.3176    1.6383 H   0  0  0  0  0  0  0  0  0  0  0  0
   -7.1661    4.9590    0.9357 H   0  0  0  0  0  0  0  0  0  0  0  0
   -5.1151    4.2855   -0.1892 H   0  0  0  0  0  0  0  0  0  0  0  0
   -4.9911    4.0100    1.5847 H   0  0  0  0  0  0  0  0  0  0  0  0
   -5.8857    1.5678    0.3101 H   0  0  0  0  0  0  0  0  0  0  0  0
   -0.8028    3.3352    0.2948 H   0  0  0  0  0  0  0  0  0  0  0  0
   -0.8910   -1.4675   -0.2308 H   0  0  0  0  0  0  0  0  0  0  0  0
   -3.5449   -1.5793   -1.3028 H   0  0  0  0  0  0  0  0  0  0  0  0
   -3.2723   -1.3235    1.6014 H   0  0  0  0  0  0  0  0  0  0  0  0
   -4.7585   -1.4466    0.5773 H   0  0  0  0  0  0  0  0  0  0  0  0
   -4.8593   -3.3027    2.0712 H   0  0  0  0  0  0  0  0  0  0  0  0
   -3.1354   -3.7903    1.6107 H   0  0  0  0  0  0  0  0  0  0  0  0
   -5.2413   -3.3418   -0.5444 H   0  0  0  0  0  0  0  0  0  0  0  0
   -4.8187   -5.9467    0.5594 H   0  0  0  0  0  0  0  0  0  0  0  0
   -3.6978   -4.6618   -1.8503 H   0  0  0  0  0  0  0  0  0  0  0  0
   -2.9782   -5.3236   -0.3635 H   0  0  0  0  0  0  0  0  0  0  0  0
   -1.5697   -3.5452   -0.0290 H   0  0  0  0  0  0  0  0  0  0  0  0
   -1.8938   -3.2806   -1.7495 H   0  0  0  0  0  0  0  0  0  0  0  0
    0.2881   -0.4501   -1.7218 H   0  0  0  0  0  0  0  0  0  0  0  0
    2.7260   -0.6465   -1.8768 H   0  0  0  0  0  0  0  0  0  0  0  0
    5.0739    1.7485   -0.2142 H   0  0  0  0  0  0  0  0  0  0  0  0
    4.9538    0.5562   -1.5196 H   0  0  0  0  0  0  0  0  0  0  0  0
    4.7672   -1.2607    0.1914 H   0  0  0  0  0  0  0  0  0  0  0  0
    4.8806   -0.0533    1.5161 H   0  0  0  0  0  0  0  0  0  0  0  0
    6.9119   -1.0519    2.2850 H   0  0  0  0  0  0  0  0  0  0  0  0
    6.8975   -2.2511    0.9777 H   0  0  0  0  0  0  0  0  0  0  0  0
    9.1785   -2.1999    1.3245 H   0  0  0  0  0  0  0  0  0  0  0  0
    9.0994   -0.5374    1.9886 H   0  0  0  0  0  0  0  0  0  0  0  0
   10.4856    1.0222    0.0934 H   0  0  0  0  0  0  0  0  0  0  0  0
    9.0908    1.1803   -1.0079 H   0  0  0  0  0  0  0  0  0  0  0  0
    8.7872    1.2486    0.7369 H   0  0  0  0  0  0  0  0  0  0  0  0
    8.7738   -0.6013   -2.1100 H   0  0  0  0  0  0  0  0  0  0  0  0
    8.2537   -2.1190   -1.2308 H   0  0  0  0  0  0  0  0  0  0  0  0
    6.9872    0.5981   -1.4644 H   0  0  0  0  0  0  0  0  0  0  0  0
    6.1912   -1.0652   -1.5030 H   0  0  0  0  0  0  0  0  0  0  0  0
    3.1710    2.3231    1.0719 H   0  0  0  0  0  0  0  0  0  0  0  0
  1  2  1  0
  2  3  1  0
  3  4  1  0
  4  5  1  0
  5  6  1  0
  6  7  2  0
  7  8  1  0
  8  9  2  0
  9 10  1  0
 10 11  1  0
 11 12  1  0
 12 13  1  0
 13 14  1  0
 14 15  1  0
 15 16  1  0
 15 17  1  0
 17 18  1  0
 10 19  2  0
  9 20  1  0
 20 21  2  0
 21 22  1  0
 22 23  2  0
 23 24  1  0
 24 25  1  0
 25 26  1  0
 26 27  1  0
 27 28  1  0
 28 29  1  0
 29 30  1  0
 29 31  1  0
 31 32  1  0
 23 33  1  0
 33 34  2  0
 19  6  1  0
 34 20  1  0
 18 12  1  0
 32 26  1  0
  1 35  1  0
  1 36  1  0
  1 37  1  0
  2 38  1  0
  2 39  1  0
  3 40  1  0
  3 41  1  0
  4 42  1  0
  4 43  1  0
  5 44  1  0
  8 45  1  0
 11 46  1  0
 12 47  1  0
 13 48  1  0
 13 49  1  0
 14 50  1  0
 14 51  1  0
 15 52  1  0
 16 53  1  0
 17 54  1  0
 17 55  1  0
 18 56  1  0
 18 57  1  0
 21 58  1  0
 22 59  1  0
 24 60  1  0
 24 61  1  0
 25 62  1  0
 25 63  1  0
 27 64  1  0
 27 65  1  0
 28 66  1  0
 28 67  1  0
 30 68  1  0
 30 69  1  0
 30 70  1  0
 31 71  1  0
 31 72  1  0
 32 73  1  0
 32 74  1  0
 33 75  1  0
M  END
$$$$
[H]c1nc(N([H])C([H])([H])C([H])([H])C([H])([H])C([H])([H])[H])nc(N([H])C([H])([H])C2([H])C([H])([H])C([H])([H])C([H])(N([H])[H])C([H])([H])C2([H])[H])c1C(=O)N([H])c1c([H])c([H])c(F)c([H])c1[H]
     RDKit          3D

 61 63  0  0  0  0  0  0  0  0999 V2000
    4.7295   -4.2077    1.5346 C   0  0  0  0  0  0  0  0  0  0  0  0
    3.7718   -4.2488    0.3457 C   0  0  0  0  0  0  0  0  0  0  0  0
    4.3590   -3.3356   -0.7163 C   0  0  0  0  0  0  0  0  0  0  0  0
    3.5035   -3.2906   -1.9430 C   0  0  0  0  0  0  0  0  0  0  0  0
    2.1699   -2.8254   -1.7498 N   0  0  0  0  0  0  0  0  0  0  0  0
    1.8466   -1.5210   -1.2916 C   0  0  0  0  0  0  0  0  0  0  0  0
    2.8534   -0.6835   -1.0307 N   0  0  0  0  0  0  0  0  0  0  0  0
    2.5730    0.5547   -0.5965 C   0  0  0  0  0  0  0  0  0  0  0  0
    1.2708    0.9973   -0.4083 C   0  0  0  0  0  0  0  0  0  0  0  0
    1.0297    2.3761    0.0744 C   0  0  0  0  0  0  0  0  0  0  0  0
   -0.1146    2.8416    0.2683 O   0  0  0  0  0  0  0  0  0  0  0  0
    2.1105    3.2534    0.3455 N   0  0  0  0  0  0  0  0  0  0  0  0
    1.8886    4.5656    0.8202 C   0  0  0  0  0  0  0  0  0  0  0  0
    0.8742    4.9541    1.6281 C   0  0  0  0  0  0  0  0  0  0  0  0
    0.7475    6.2863    1.9921 C   0  0  0  0  0  0  0  0  0  0  0  0
    1.6603    7.2170    1.5288 C   0  0  0  0  0  0  0  0  0  0  0  0
    1.5567    8.5273    1.8717 F   0  0  0  0  0  0  0  0  0  0  0  0
    2.6966    6.8308    0.7069 C   0  0  0  0  0  0  0  0  0  0  0  0
    2.8098    5.5131    0.3550 C   0  0  0  0  0  0  0  0  0  0  0  0
    0.2527    0.1452   -0.6738 C   0  0  0  0  0  0  0  0  0  0  0  0
   -1.1214    0.4601   -0.5283 N   0  0  0  0  0  0  0  0  0  0  0  0
   -2.1191   -0.5715   -0.8554 C   0  0  0  0  0  0  0  0  0  0  0  0
   -3.5269   -0.0721   -0.6219 C   0  0  0  0  0  0  0  0  0  0  0  0
   -3.6802    0.2923    0.8012 C   0  0  0  0  0  0  0  0  0  0  0  0
   -4.4503   -0.6114    1.6807 C   0  0  0  0  0  0  0  0  0  0  0  0
   -5.3614   -1.5868    1.0287 C   0  0  0  0  0  0  0  0  0  0  0  0
   -5.7859   -2.6532    1.8903 N   0  0  0  0  0  0  0  0  0  0  0  0
   -4.6149   -2.2144   -0.1364 C   0  0  0  0  0  0  0  0  0  0  0  0
   -4.4682   -1.1069   -1.1565 C   0  0  0  0  0  0  0  0  0  0  0  0
    0.5942   -1.1041   -1.1135 N   0  0  0  0  0  0  0  0  0  0  0  0
    5.2590   -3.2342    1.5733 H   0  0  0  0  0  0  0  0  0  0  0  0
    4.1862   -4.3317    2.4991 H   0  0  0  0  0  0  0  0  0  0  0  0
    5.4728   -5.0247    1.3622 H   0  0  0  0  0  0  0  0  0  0  0  0
    2.8092   -3.8673    0.7066 H   0  0  0  0  0  0  0  0  0  0  0  0
    3.6875   -5.2856   -0.0335 H   0  0  0  0  0  0  0  0  0  0  0  0
    5.3271   -3.8341   -1.0255 H   0  0  0  0  0  0  0  0  0  0  0  0
    4.6394   -2.3705   -0.3008 H   0  0  0  0  0  0  0  0  0  0  0  0
    3.4745   -4.3308   -2.3649 H   0  0  0  0  0  0  0  0  0  0  0  0
    3.9985   -2.6876   -2.7470 H   0  0  0  0  0  0  0  0  0  0  0  0
    1.3478   -3.4641   -1.9502 H   0  0  0  0  0  0  0  0  0  0  0  0
    3.4061    1.2191   -0.3903 H   0  0  0  0  0  0  0  0  0  0  0  0
    3.1278    2.9522    0.2037 H   0  0  0  0  0  0  0  0  0  0  0  0
    0.1666    4.2504    2.0201 H   0  0  0  0  0  0  0  0  0  0  0  0
   -0.0640    6.5562    2.6290 H   0  0  0  0  0  0  0  0  0  0  0  0
    3.4329    7.5483    0.3269 H   0  0  0  0  0  0  0  0  0  0  0  0
    3.6378    5.2364   -0.2951 H   0  0  0  0  0  0  0  0  0  0  0  0
   -1.5287    1.3397   -0.2180 H   0  0  0  0  0  0  0  0  0  0  0  0
   -1.9840   -0.9325   -1.9030 H   0  0  0  0  0  0  0  0  0  0  0  0
   -1.8955   -1.4441   -0.2085 H   0  0  0  0  0  0  0  0  0  0  0  0
   -3.6146    0.8430   -1.2890 H   0  0  0  0  0  0  0  0  0  0  0  0
   -2.6678    0.5358    1.2467 H   0  0  0  0  0  0  0  0  0  0  0  0
   -4.2019    1.2973    0.8346 H   0  0  0  0  0  0  0  0  0  0  0  0
   -5.0050   -0.0387    2.4825 H   0  0  0  0  0  0  0  0  0  0  0  0
   -3.7023   -1.2145    2.2777 H   0  0  0  0  0  0  0  0  0  0  0  0
   -6.2220   -1.0221    0.6011 H   0  0  0  0  0  0  0  0  0  0  0  0
   -6.1714   -3.4197    1.2791 H   0  0  0  0  0  0  0  0  0  0  0  0
   -6.5184   -2.3733    2.5830 H   0  0  0  0  0  0  0  0  0  0  0  0
   -3.5896   -2.5150    0.1588 H   0  0  0  0  0  0  0  0  0  0  0  0
   -5.1690   -3.0815   -0.5603 H   0  0  0  0  0  0  0  0  0  0  0  0
   -4.2149   -1.4746   -2.1478 H   0  0  0  0  0  0  0  0  0  0  0  0
   -5.4791   -0.6136   -1.2299 H   0  0  0  0  0  0  0  0  0  0  0  0
  1  2  1  0
  2  3  1  0
  3  4  1  0
  4  5  1  0
  5  6  1  0
  6  7  2  0
  7  8  1  0
  8  9  2  0
  9 10  1  0
 10 11  2  0
 10 12  1  0
 12 13  1  0
 13 14  2  0
 14 15  1  0
 15 16  2  0
 16 17  1  0
 16 18  1  0
 18 19  2  0
  9 20  1  0
 20 21  1  0
 21 22  1  0
 22 23  1  0
 23 24  1  0
 24 25  1  0
 25 26  1  0
 26 27  1  0
 26 28  1  0
 28 29  1  0
 20 30  2  0
 30  6  1  0
 19 13  1  0
 29 23  1  0
  1 31  1  0
  1 32  1  0
  1 33  1  0
  2 34  1  0
  2 35  1  0
  3 36  1  0
  3 37  1  0
  4 38  1  0
  4 39  1  0
  5 40  1  0
  8 41  1  0
 12 42  1  0
 14 43  1  0
 15 44  1  0
 18 45  1  0
 19 46  1  0
 21 47  1  0
 22 48  1  0
 22 49  1  0
 23 50  1  0
 24 51  1  0
 24 52  1  0
 25 53  1  0
 25 54  1  0
 26 55  1  0
 27 56  1  0
 27 57  1  0
 28 58  1  0
 28 59  1  0
 29 60  1  0
 29 61  1  0
M  END
$$$$
[H]c1nc2nc(c1C(=O)N([H])C([H])([H])c1c([H])c([H])c(F)c([H])c1[H])N([H])C([H])([H])C([H])([H])C([H])([H])C([H])([H])[C@]([H])(N([H])[H])C(=O)N([H])C([H])([H])C([H])([H])C([H])([H])C([H])([H])C([H])([H])N2[H]
     RDKit          3D

 65 67  0  0  0  0  0  0  0  0999 V2000
   -4.8155   -3.0607    0.2808 N   0  0  0  0  0  0  0  0  0  0  0  0
   -3.6176   -2.2305    0.2160 C   0  0  1  0  0  0  0  0  0  0  0  0
   -2.4443   -3.1471   -0.0027 C   0  0  0  0  0  0  0  0  0  0  0  0
   -1.5234   -3.1801    1.1850 C   0  0  0  0  0  0  0  0  0  0  0  0
   -0.0895   -2.9409    0.7784 C   0  0  0  0  0  0  0  0  0  0  0  0
    0.4257   -1.6073    1.2205 C   0  0  0  0  0  0  0  0  0  0  0  0
    0.8432   -0.8514    0.0578 N   0  0  0  0  0  0  0  0  0  0  0  0
    0.8065    0.5650   -0.0541 C   0  0  0  0  0  0  0  0  0  0  0  0
   -0.2677    1.2744    0.3353 N   0  0  0  0  0  0  0  0  0  0  0  0
   -0.3250    2.5936    0.1840 C   0  0  0  0  0  0  0  0  0  0  0  0
   -1.4357    3.3869    0.5804 N   0  0  0  0  0  0  0  0  0  0  0  0
   -2.7168    2.7588    0.8403 C   0  0  0  0  0  0  0  0  0  0  0  0
   -3.3702    2.5194   -0.4928 C   0  0  0  0  0  0  0  0  0  0  0  0
   -4.8279    2.1900   -0.3720 C   0  0  0  0  0  0  0  0  0  0  0  0
   -5.1073    1.1294    0.6577 C   0  0  0  0  0  0  0  0  0  0  0  0
   -5.7764   -0.0344   -0.0598 C   0  0  0  0  0  0  0  0  0  0  0  0
   -4.9108   -0.4897   -1.1144 N   0  0  0  0  0  0  0  0  0  0  0  0
   -3.7222   -1.2391   -0.8849 C   0  0  0  0  0  0  0  0  0  0  0  0
   -2.7008   -1.0818   -1.6231 O   0  0  0  0  0  0  0  0  0  0  0  0
    0.7152    3.2340   -0.3713 N   0  0  0  0  0  0  0  0  0  0  0  0
    1.8440    2.6113   -0.7961 C   0  0  0  0  0  0  0  0  0  0  0  0
    1.8757    1.2209   -0.6223 C   0  0  0  0  0  0  0  0  0  0  0  0
    3.0935    0.5136   -0.9924 C   0  0  0  0  0  0  0  0  0  0  0  0
    3.2319   -0.7273   -0.7201 O   0  0  0  0  0  0  0  0  0  0  0  0
    4.1456    1.1891   -1.6635 N   0  0  0  0  0  0  0  0  0  0  0  0
    5.3521    0.4169   -2.0021 C   0  0  0  0  0  0  0  0  0  0  0  0
    6.1826    0.2508   -0.8058 C   0  0  0  0  0  0  0  0  0  0  0  0
    6.3231   -0.9595   -0.2035 C   0  0  0  0  0  0  0  0  0  0  0  0
    7.1081   -1.0872    0.9289 C   0  0  0  0  0  0  0  0  0  0  0  0
    7.7420    0.0139    1.4370 C   0  0  0  0  0  0  0  0  0  0  0  0
    8.5185   -0.0774    2.5457 F   0  0  0  0  0  0  0  0  0  0  0  0
    7.6030    1.2254    0.8358 C   0  0  0  0  0  0  0  0  0  0  0  0
    6.8230    1.3747   -0.2967 C   0  0  0  0  0  0  0  0  0  0  0  0
   -5.3185   -3.0877   -0.6346 H   0  0  0  0  0  0  0  0  0  0  0  0
   -4.5542   -3.9865    0.6368 H   0  0  0  0  0  0  0  0  0  0  0  0
   -3.5616   -1.7172    1.2016 H   0  0  0  0  0  0  0  0  0  0  0  0
   -2.7844   -4.1782   -0.2952 H   0  0  0  0  0  0  0  0  0  0  0  0
   -1.8425   -2.7866   -0.8869 H   0  0  0  0  0  0  0  0  0  0  0  0
   -1.8622   -2.4709    1.9666 H   0  0  0  0  0  0  0  0  0  0  0  0
   -1.5930   -4.1970    1.6191 H   0  0  0  0  0  0  0  0  0  0  0  0
   -0.0573   -3.0136   -0.3294 H   0  0  0  0  0  0  0  0  0  0  0  0
    0.5555   -3.7601    1.1668 H   0  0  0  0  0  0  0  0  0  0  0  0
    1.3699   -1.7866    1.8051 H   0  0  0  0  0  0  0  0  0  0  0  0
   -0.3068   -1.0430    1.8375 H   0  0  0  0  0  0  0  0  0  0  0  0
    1.1858   -1.4128   -0.7713 H   0  0  0  0  0  0  0  0  0  0  0  0
   -1.3849    4.4236    0.6994 H   0  0  0  0  0  0  0  0  0  0  0  0
   -2.5018    1.8256    1.3973 H   0  0  0  0  0  0  0  0  0  0  0  0
   -3.3609    3.3900    1.4605 H   0  0  0  0  0  0  0  0  0  0  0  0
   -2.7926    1.7794   -1.0856 H   0  0  0  0  0  0  0  0  0  0  0  0
   -3.2954    3.4790   -1.0634 H   0  0  0  0  0  0  0  0  0  0  0  0
   -5.3874    3.1265   -0.1205 H   0  0  0  0  0  0  0  0  0  0  0  0
   -5.1887    1.9016   -1.3898 H   0  0  0  0  0  0  0  0  0  0  0  0
   -5.8014    1.5214    1.4370 H   0  0  0  0  0  0  0  0  0  0  0  0
   -4.2033    0.7313    1.1448 H   0  0  0  0  0  0  0  0  0  0  0  0
   -6.0434   -0.8002    0.6745 H   0  0  0  0  0  0  0  0  0  0  0  0
   -6.7199    0.3389   -0.5133 H   0  0  0  0  0  0  0  0  0  0  0  0
   -5.1337   -0.2777   -2.1267 H   0  0  0  0  0  0  0  0  0  0  0  0
    2.6508    3.1737   -1.2336 H   0  0  0  0  0  0  0  0  0  0  0  0
    4.0993    2.1760   -1.9224 H   0  0  0  0  0  0  0  0  0  0  0  0
    5.8871    0.9768   -2.7715 H   0  0  0  0  0  0  0  0  0  0  0  0
    5.0567   -0.5754   -2.4180 H   0  0  0  0  0  0  0  0  0  0  0  0
    5.8545   -1.8785   -0.5519 H   0  0  0  0  0  0  0  0  0  0  0  0
    7.2293   -2.0438    1.4209 H   0  0  0  0  0  0  0  0  0  0  0  0
    8.1028    2.0912    1.2369 H   0  0  0  0  0  0  0  0  0  0  0  0
    6.7196    2.3272   -0.7622 H   0  0  0  0  0  0  0  0  0  0  0  0
  1  2  1  0
  2  3  1  0
  3  4  1  0
  4  5  1  0
  5  6  1  0
  6  7  1  0
  7  8  1  0
  8  9  2  0
  9 10  1  0
 10 11  1  0
 11 12  1  0
 12 13  1  0
 13 14  1  0
 14 15  1  0
 15 16  1  0
 16 17  1  0
 17 18  1  0
 18 19  2  0
 10 20  2  0
 20 21  1  0
 21 22  2  0
 22 23  1  0
 23 24  2  0
 23 25  1  0
 25 26  1  0
 26 27  1  0
 27 28  2  0
 28 29  1  0
 29 30  2  0
 30 31  1  0
 30 32  1  0
 32 33  2  0
 18  2  1  0
 33 27  1  0
 22  8  1  0
  1 34  1  0
  1 35  1  0
  2 36  1  1
  3 37  1  0
  3 38  1  0
  4 39  1  0
  4 40  1  0
  5 41  1  0
  5 42  1  0
  6 43  1  0
  6 44  1  0
  7 45  1  0
 11 46  1  0
 12 47  1  0
 12 48  1  0
 13 49  1  0
 13 50  1  0
 14 51  1  0
 14 52  1  0
 15 53  1  0
 15 54  1  0
 16 55  1  0
 16 56  1  0
 17 57  1  0
 21 58  1  0
 25 59  1  0
 26 60  1  0
 26 61  1  0
 28 62  1  0
 29 63  1  0
 32 64  1  0
 33 65  1  0
M  END
$$$$
[H]c1nc(N([H])[H])c2c(-c3c([H])c([H])c(N([H])C(=O)c4c([H])n(C([H])(C([H])([H])[H])C([H])([H])[H])c(=O)n(-c5c([H])c([H])c([H])c([H])c5[H])c4=O)c([H])c3[H])c([H])c(C3([H])C([H])([H])N(C(=O)C4([H])C([H])([H])C4([H])[H])C3([H])[H])n2n1
     RDKit          3D

 77 83  0  0  0  0  0  0  0  0999 V2000
    6.3660   -2.6727   -2.6603 C   0  0  0  0  0  0  0  0  0  0  0  0
    6.7331   -2.8520   -1.1974 C   0  0  0  0  0  0  0  0  0  0  0  0
    8.1156   -3.3927   -1.0812 C   0  0  0  0  0  0  0  0  0  0  0  0
    6.4772   -1.6531   -0.4378 N   0  0  0  0  0  0  0  0  0  0  0  0
    5.1700   -1.3939   -0.1398 C   0  0  0  0  0  0  0  0  0  0  0  0
    4.8356   -0.2680    0.5710 C   0  0  0  0  0  0  0  0  0  0  0  0
    3.3963   -0.0242    0.8503 C   0  0  0  0  0  0  0  0  0  0  0  0
    3.1325    0.5752    1.9126 O   0  0  0  0  0  0  0  0  0  0  0  0
    2.4228   -0.4574   -0.0551 N   0  0  0  0  0  0  0  0  0  0  0  0
    1.0332   -0.2868    0.0632 C   0  0  0  0  0  0  0  0  0  0  0  0
    0.1745   -1.1622   -0.6501 C   0  0  0  0  0  0  0  0  0  0  0  0
   -1.1856   -1.0384   -0.6128 C   0  0  0  0  0  0  0  0  0  0  0  0
   -1.7760   -0.0273    0.1429 C   0  0  0  0  0  0  0  0  0  0  0  0
   -0.9251    0.8064    0.8242 C   0  0  0  0  0  0  0  0  0  0  0  0
    0.4348    0.6991    0.7992 C   0  0  0  0  0  0  0  0  0  0  0  0
   -3.2341    0.0753    0.2038 C   0  0  0  0  0  0  0  0  0  0  0  0
   -4.0863   -0.8882    0.7704 C   0  0  0  0  0  0  0  0  0  0  0  0
   -5.3578   -0.3798    0.6624 C   0  0  0  0  0  0  0  0  0  0  0  0
   -6.5697   -1.0763    1.1448 C   0  0  0  0  0  0  0  0  0  0  0  0
   -7.5679   -0.1750    1.7832 C   0  0  0  0  0  0  0  0  0  0  0  0
   -8.4548   -0.3314    0.6620 N   0  0  0  0  0  0  0  0  0  0  0  0
   -7.5902   -1.3208    0.0978 C   0  0  0  0  0  0  0  0  0  0  0  0
   -9.6995    0.3019    0.3361 C   0  0  0  0  0  0  0  0  0  0  0  0
  -10.2109    1.1756    1.0904 O   0  0  0  0  0  0  0  0  0  0  0  0
  -10.3886   -0.0747   -0.9011 C   0  0  0  0  0  0  0  0  0  0  0  0
  -11.9137   -0.1586   -0.8993 C   0  0  0  0  0  0  0  0  0  0  0  0
  -11.1962    0.9455   -1.6283 C   0  0  0  0  0  0  0  0  0  0  0  0
   -5.3345    0.8240    0.0691 N   0  0  0  0  0  0  0  0  0  0  0  0
   -6.2665    1.7017   -0.2633 N   0  0  0  0  0  0  0  0  0  0  0  0
   -6.0252    2.8606   -0.8666 C   0  0  0  0  0  0  0  0  0  0  0  0
   -4.7657    3.1814   -1.1677 N   0  0  0  0  0  0  0  0  0  0  0  0
   -3.7807    2.3216   -0.8494 C   0  0  0  0  0  0  0  0  0  0  0  0
   -2.4231    2.6189   -1.1861 N   0  0  0  0  0  0  0  0  0  0  0  0
   -4.0243    1.1081   -0.2166 C   0  0  0  0  0  0  0  0  0  0  0  0
    5.8287    0.5839    0.9749 C   0  0  0  0  0  0  0  0  0  0  0  0
    5.5500    1.6189    1.6268 O   0  0  0  0  0  0  0  0  0  0  0  0
    7.1306    0.3408    0.6876 N   0  0  0  0  0  0  0  0  0  0  0  0
    8.1419    1.2372    1.1135 C   0  0  0  0  0  0  0  0  0  0  0  0
    8.4809    2.3745    0.4110 C   0  0  0  0  0  0  0  0  0  0  0  0
    9.4787    3.2316    0.8561 C   0  0  0  0  0  0  0  0  0  0  0  0
   10.1546    2.9592    2.0182 C   0  0  0  0  0  0  0  0  0  0  0  0
    9.8384    1.8412    2.7313 C   0  0  0  0  0  0  0  0  0  0  0  0
    8.8312    0.9817    2.2765 C   0  0  0  0  0  0  0  0  0  0  0  0
    7.3857   -0.7881   -0.0175 C   0  0  0  0  0  0  0  0  0  0  0  0
    8.5894   -1.0051   -0.2788 O   0  0  0  0  0  0  0  0  0  0  0  0
    6.8514   -1.7875   -3.1140 H   0  0  0  0  0  0  0  0  0  0  0  0
    5.2452   -2.6022   -2.7158 H   0  0  0  0  0  0  0  0  0  0  0  0
    6.7039   -3.5530   -3.2423 H   0  0  0  0  0  0  0  0  0  0  0  0
    6.0386   -3.6366   -0.7907 H   0  0  0  0  0  0  0  0  0  0  0  0
    8.8489   -2.9195   -1.7937 H   0  0  0  0  0  0  0  0  0  0  0  0
    8.4805   -3.4531   -0.0539 H   0  0  0  0  0  0  0  0  0  0  0  0
    8.0708   -4.4647   -1.4389 H   0  0  0  0  0  0  0  0  0  0  0  0
    4.3864   -2.0747   -0.4589 H   0  0  0  0  0  0  0  0  0  0  0  0
    2.7298   -0.9763   -0.9559 H   0  0  0  0  0  0  0  0  0  0  0  0
    0.6253   -1.9562   -1.2443 H   0  0  0  0  0  0  0  0  0  0  0  0
   -1.7980   -1.7218   -1.1671 H   0  0  0  0  0  0  0  0  0  0  0  0
   -1.3347    1.6138    1.4382 H   0  0  0  0  0  0  0  0  0  0  0  0
    1.0730    1.3973    1.3485 H   0  0  0  0  0  0  0  0  0  0  0  0
   -3.7064   -1.8059    1.1749 H   0  0  0  0  0  0  0  0  0  0  0  0
   -6.3043   -1.9934    1.7606 H   0  0  0  0  0  0  0  0  0  0  0  0
   -7.2617    0.8893    1.9363 H   0  0  0  0  0  0  0  0  0  0  0  0
   -8.0327   -0.5959    2.7217 H   0  0  0  0  0  0  0  0  0  0  0  0
   -8.0175   -2.3695    0.0977 H   0  0  0  0  0  0  0  0  0  0  0  0
   -7.2631   -1.1246   -0.9613 H   0  0  0  0  0  0  0  0  0  0  0  0
   -9.8796   -0.8723   -1.5137 H   0  0  0  0  0  0  0  0  0  0  0  0
  -12.4675    0.1174    0.0034 H   0  0  0  0  0  0  0  0  0  0  0  0
  -12.4095   -0.9151   -1.5486 H   0  0  0  0  0  0  0  0  0  0  0  0
  -11.1627    0.8943   -2.7319 H   0  0  0  0  0  0  0  0  0  0  0  0
  -11.2686    1.9579   -1.1771 H   0  0  0  0  0  0  0  0  0  0  0  0
   -6.8502    3.5612   -1.1209 H   0  0  0  0  0  0  0  0  0  0  0  0
   -1.8610    3.3771   -0.7921 H   0  0  0  0  0  0  0  0  0  0  0  0
   -1.9709    1.9891   -1.9091 H   0  0  0  0  0  0  0  0  0  0  0  0
    7.9298    2.5637   -0.5086 H   0  0  0  0  0  0  0  0  0  0  0  0
    9.7058    4.1126    0.2704 H   0  0  0  0  0  0  0  0  0  0  0  0
   10.9462    3.6494    2.3553 H   0  0  0  0  0  0  0  0  0  0  0  0
   10.3795    1.6355    3.6489 H   0  0  0  0  0  0  0  0  0  0  0  0
    8.6486    0.1181    2.9129 H   0  0  0  0  0  0  0  0  0  0  0  0
  1  2  1  0
  2  3  1  0
  2  4  1  0
  4  5  1  0
  5  6  2  0
  6  7  1  0
  7  8  2  0
  7  9  1  0
  9 10  1  0
 10 11  2  0
 11 12  1  0
 12 13  2  0
 13 14  1  0
 14 15  2  0
 13 16  1  0
 16 17  1  0
 17 18  2  0
 18 19  1  0
 19 20  1  0
 20 21  1  0
 21 22  1  0
 21 23  1  0
 23 24  2  0
 23 25  1  0
 25 26  1  0
 26 27  1  0
 18 28  1  0
 28 29  1  0
 29 30  2  0
 30 31  1  0
 31 32  2  0
 32 33  1  0
 32 34  1  0
  6 35  1  0
 35 36  2  0
 35 37  1  0
 37 38  1  0
 38 39  2  0
 39 40  1  0
 40 41  2  0
 41 42  1  0
 42 43  2  0
 37 44  1  0
 44 45  2  0
 44  4  1  0
 15 10  1  0
 34 16  2  0
 43 38  1  0
 22 19  1  0
 27 25  1  0
 34 28  1  0
  1 46  1  0
  1 47  1  0
  1 48  1  0
  2 49  1  0
  3 50  1  0
  3 51  1  0
  3 52  1  0
  5 53  1  0
  9 54  1  0
 11 55  1  0
 12 56  1  0
 14 57  1  0
 15 58  1  0
 17 59  1  0
 19 60  1  0
 20 61  1  0
 20 62  1  0
 22 63  1  0
 22 64  1  0
 25 65  1  0
 26 66  1  0
 26 67  1  0
 27 68  1  0
 27 69  1  0
 30 70  1  0
 33 71  1  0
 33 72  1  0
 39 73  1  0
 40 74  1  0
 41 75  1  0
 42 76  1  0
 43 77  1  0
M  END
$$$$
[H]c1c([H])c([H])c(C([H])([H])C([H])([H])C([H])([H])N([H])c2nc([H])c3c(-c4c([H])c([H])c(N5C([H])([H])C([H])([H])N([H])C([H])([H])C5([H])[H])c([H])c4[H])nn(C([H])([H])[C@]4([H])C([H])([H])C([H])([H])[C@@]([H])(N([H])[H])C([H])([H])C4([H])[H])c3n2)c([H])c1[H]
     RDKit          3D

 79 84  0  0  0  0  0  0  0  0999 V2000
    0.4360    6.6139    1.3175 N   0  0  0  0  0  0  0  0  0  0  0  0
    0.7466    5.3564    1.9666 C   0  0  1  0  0  0  0  0  0  0  0  0
   -0.4884    4.5041    1.9282 C   0  0  0  0  0  0  0  0  0  0  0  0
   -0.8757    4.1426    0.4971 C   0  0  0  0  0  0  0  0  0  0  0  0
    0.3335    3.9213   -0.3520 C   0  0  2  0  0  0  0  0  0  0  0  0
    0.0825    3.0875   -1.5639 C   0  0  0  0  0  0  0  0  0  0  0  0
   -0.4033    1.7599   -1.2881 N   0  0  0  0  0  0  0  0  0  0  0  0
   -1.6466    1.3850   -1.1753 N   0  0  0  0  0  0  0  0  0  0  0  0
   -1.7613    0.0748   -0.9152 C   0  0  0  0  0  0  0  0  0  0  0  0
   -3.0372   -0.6246   -0.7367 C   0  0  0  0  0  0  0  0  0  0  0  0
   -3.2361   -1.5138    0.2749 C   0  0  0  0  0  0  0  0  0  0  0  0
   -4.4579   -2.1414    0.3937 C   0  0  0  0  0  0  0  0  0  0  0  0
   -5.5167   -1.9013   -0.4914 C   0  0  0  0  0  0  0  0  0  0  0  0
   -5.2955   -1.0080   -1.4961 C   0  0  0  0  0  0  0  0  0  0  0  0
   -4.0524   -0.3778   -1.6065 C   0  0  0  0  0  0  0  0  0  0  0  0
   -6.7530   -2.5627   -0.3490 N   0  0  0  0  0  0  0  0  0  0  0  0
   -7.9353   -2.2718   -1.1163 C   0  0  0  0  0  0  0  0  0  0  0  0
   -9.0811   -1.9603   -0.1755 C   0  0  0  0  0  0  0  0  0  0  0  0
   -9.1499   -2.8343    0.9627 N   0  0  0  0  0  0  0  0  0  0  0  0
   -8.3563   -4.0176    0.6928 C   0  0  0  0  0  0  0  0  0  0  0  0
   -6.8952   -3.6502    0.6440 C   0  0  0  0  0  0  0  0  0  0  0  0
   -0.4798   -0.4098   -0.8611 C   0  0  0  0  0  0  0  0  0  0  0  0
   -0.0134   -1.6882   -0.6255 C   0  0  0  0  0  0  0  0  0  0  0  0
    1.3349   -1.8668   -0.6330 N   0  0  0  0  0  0  0  0  0  0  0  0
    2.1721   -0.8380   -0.8608 C   0  0  0  0  0  0  0  0  0  0  0  0
    3.5668   -1.0995   -0.8532 N   0  0  0  0  0  0  0  0  0  0  0  0
    4.0896   -2.4232   -0.6104 C   0  0  0  0  0  0  0  0  0  0  0  0
    5.5837   -2.4454   -0.6389 C   0  0  0  0  0  0  0  0  0  0  0  0
    6.0998   -1.5132    0.4478 C   0  0  0  0  0  0  0  0  0  0  0  0
    7.5844   -1.5373    0.4198 C   0  0  0  0  0  0  0  0  0  0  0  0
    8.2460   -0.6339   -0.3798 C   0  0  0  0  0  0  0  0  0  0  0  0
    9.6431   -0.6392   -0.4208 C   0  0  0  0  0  0  0  0  0  0  0  0
   10.3562   -1.5444    0.3356 C   0  0  0  0  0  0  0  0  0  0  0  0
    9.6835   -2.4467    1.1347 C   0  0  0  0  0  0  0  0  0  0  0  0
    8.2855   -2.4498    1.1829 C   0  0  0  0  0  0  0  0  0  0  0  0
    1.6788    0.4021   -1.0881 N   0  0  0  0  0  0  0  0  0  0  0  0
    0.3527    0.6635   -1.0975 C   0  0  0  0  0  0  0  0  0  0  0  0
    1.4655    3.4507    0.5074 C   0  0  0  0  0  0  0  0  0  0  0  0
    1.9111    4.6543    1.3503 C   0  0  0  0  0  0  0  0  0  0  0  0
   -0.5325    6.6364    0.9294 H   0  0  0  0  0  0  0  0  0  0  0  0
    1.1522    6.8878    0.6093 H   0  0  0  0  0  0  0  0  0  0  0  0
    0.9822    5.5655    3.0172 H   0  0  0  0  0  0  0  0  0  0  0  0
   -1.3220    5.0600    2.3982 H   0  0  0  0  0  0  0  0  0  0  0  0
   -0.2883    3.5898    2.5360 H   0  0  0  0  0  0  0  0  0  0  0  0
   -1.5713    3.3073    0.5578 H   0  0  0  0  0  0  0  0  0  0  0  0
   -1.4677    5.0222    0.1071 H   0  0  0  0  0  0  0  0  0  0  0  0
    0.6367    4.9399   -0.7385 H   0  0  0  0  0  0  0  0  0  0  0  0
   -0.6189    3.6620   -2.2215 H   0  0  0  0  0  0  0  0  0  0  0  0
    1.0430    3.0517   -2.1423 H   0  0  0  0  0  0  0  0  0  0  0  0
   -2.4529   -1.7263    0.9741 H   0  0  0  0  0  0  0  0  0  0  0  0
   -4.6711   -2.8590    1.1806 H   0  0  0  0  0  0  0  0  0  0  0  0
   -6.0585   -0.7673   -2.2256 H   0  0  0  0  0  0  0  0  0  0  0  0
   -3.9185    0.3150   -2.4060 H   0  0  0  0  0  0  0  0  0  0  0  0
   -7.8486   -1.3966   -1.7898 H   0  0  0  0  0  0  0  0  0  0  0  0
   -8.2173   -3.1704   -1.7415 H   0  0  0  0  0  0  0  0  0  0  0  0
  -10.0203   -1.9916   -0.7847 H   0  0  0  0  0  0  0  0  0  0  0  0
   -8.9546   -0.9116    0.1774 H   0  0  0  0  0  0  0  0  0  0  0  0
  -10.1500   -3.1474    1.0470 H   0  0  0  0  0  0  0  0  0  0  0  0
   -8.7166   -4.4427   -0.2703 H   0  0  0  0  0  0  0  0  0  0  0  0
   -8.5356   -4.7450    1.5245 H   0  0  0  0  0  0  0  0  0  0  0  0
   -6.6038   -3.2885    1.6563 H   0  0  0  0  0  0  0  0  0  0  0  0
   -6.3268   -4.5420    0.3227 H   0  0  0  0  0  0  0  0  0  0  0  0
   -0.6852   -2.5161   -0.4421 H   0  0  0  0  0  0  0  0  0  0  0  0
    4.2175   -0.3259   -1.0263 H   0  0  0  0  0  0  0  0  0  0  0  0
    3.6568   -3.0827   -1.3988 H   0  0  0  0  0  0  0  0  0  0  0  0
    3.7243   -2.8411    0.3638 H   0  0  0  0  0  0  0  0  0  0  0  0
    5.9606   -3.4603   -0.5229 H   0  0  0  0  0  0  0  0  0  0  0  0
    5.9130   -2.0078   -1.6176 H   0  0  0  0  0  0  0  0  0  0  0  0
    5.7023   -1.8371    1.4348 H   0  0  0  0  0  0  0  0  0  0  0  0
    5.7876   -0.4699    0.2479 H   0  0  0  0  0  0  0  0  0  0  0  0
    7.7162    0.0899   -0.9859 H   0  0  0  0  0  0  0  0  0  0  0  0
   10.1771    0.0657   -1.0455 H   0  0  0  0  0  0  0  0  0  0  0  0
   11.4316   -1.5419    0.2983 H   0  0  0  0  0  0  0  0  0  0  0  0
   10.2308   -3.1645    1.7351 H   0  0  0  0  0  0  0  0  0  0  0  0
    7.7253   -3.1293    1.7864 H   0  0  0  0  0  0  0  0  0  0  0  0
    1.2173    2.6122    1.1676 H   0  0  0  0  0  0  0  0  0  0  0  0
    2.3783    3.2015   -0.1092 H   0  0  0  0  0  0  0  0  0  0  0  0
    2.7037    4.3808    2.0588 H   0  0  0  0  0  0  0  0  0  0  0  0
    2.3868    5.3604    0.6174 H   0  0  0  0  0  0  0  0  0  0  0  0
  1  2  1  0
  2  3  1  0
  3  4  1  0
  4  5  1  0
  5  6  1  0
  6  7  1  0
  7  8  1  0
  8  9  2  0
  9 10  1  0
 10 11  2  0
 11 12  1  0
 12 13  2  0
 13 14  1  0
 14 15  2  0
 13 16  1  0
 16 17  1  0
 17 18  1  0
 18 19  1  0
 19 20  1  0
 20 21  1  0
  9 22  1  0
 22 23  2  0
 23 24  1  0
 24 25  2  0
 25 26  1  0
 26 27  1  0
 27 28  1  0
 28 29  1  0
 29 30  1  0
 30 31  2  0
 31 32  1  0
 32 33  2  0
 33 34  1  0
 34 35  2  0
 25 36  1  0
 36 37  2  0
  5 38  1  0
 38 39  1  0
 39  2  1  0
 37  7  1  0
 15 10  1  0
 21 16  1  0
 37 22  1  0
 35 30  1  0
  1 40  1  0
  1 41  1  0
  2 42  1  1
  3 43  1  0
  3 44  1  0
  4 45  1  0
  4 46  1  0
  5 47  1  6
  6 48  1  0
  6 49  1  0
 11 50  1  0
 12 51  1  0
 14 52  1  0
 15 53  1  0
 17 54  1  0
 17 55  1  0
 18 56  1  0
 18 57  1  0
 19 58  1  0
 20 59  1  0
 20 60  1  0
 21 61  1  0
 21 62  1  0
 23 63  1  0
 26 64  1  0
 27 65  1  0
 27 66  1  0
 28 67  1  0
 28 68  1  0
 29 69  1  0
 29 70  1  0
 31 71  1  0
 32 72  1  0
 33 73  1  0
 34 74  1  0
 35 75  1  0
 38 76  1  0
 38 77  1  0
 39 78  1  0
 39 79  1  0
M  END
$$$$
[H]OC1([H])C([H])([H])C([H])([H])C([H])(N([H])c2nc(N([H])C([H])([H])C([H])([H])C([H])([H])C([H])([H])[H])nc([H])c2-c2nc([H])c(C([H])([H])N([H])C([H])([H])C3([H])C([H])([H])C3([H])[H])c([H])c2[H])C([H])([H])C1([H])[H]
     RDKit          3D

 67 70  0  0  0  0  0  0  0  0999 V2000
   -4.6803    3.8322   -0.6069 C   0  0  0  0  0  0  0  0  0  0  0  0
   -5.7575    2.8031   -0.5978 C   0  0  0  0  0  0  0  0  0  0  0  0
   -5.4399    1.4973    0.0314 C   0  0  0  0  0  0  0  0  0  0  0  0
   -5.1153    1.5768    1.4808 C   0  0  0  0  0  0  0  0  0  0  0  0
   -3.9573    2.3333    1.7901 N   0  0  0  0  0  0  0  0  0  0  0  0
   -2.6651    1.8353    1.4197 C   0  0  0  0  0  0  0  0  0  0  0  0
   -1.5524    2.5305    1.6906 N   0  0  0  0  0  0  0  0  0  0  0  0
   -0.3285    2.1263    1.3831 C   0  0  0  0  0  0  0  0  0  0  0  0
   -0.1385    0.8859    0.7249 C   0  0  0  0  0  0  0  0  0  0  0  0
   -1.2824    0.2017    0.4669 C   0  0  0  0  0  0  0  0  0  0  0  0
   -1.2152   -1.1237   -0.0841 N   0  0  0  0  0  0  0  0  0  0  0  0
   -2.4825   -1.8009   -0.3913 C   0  0  0  0  0  0  0  0  0  0  0  0
   -3.1952   -2.0860    0.8840 C   0  0  0  0  0  0  0  0  0  0  0  0
   -3.2913   -3.6078    1.0488 C   0  0  0  0  0  0  0  0  0  0  0  0
   -4.0403   -4.1874   -0.1140 C   0  0  0  0  0  0  0  0  0  0  0  0
   -5.3948   -3.8227   -0.0090 O   0  0  0  0  0  0  0  0  0  0  0  0
   -3.5437   -3.6948   -1.4558 C   0  0  0  0  0  0  0  0  0  0  0  0
   -2.2075   -2.9961   -1.2364 C   0  0  0  0  0  0  0  0  0  0  0  0
   -2.5155    0.6712    0.8069 N   0  0  0  0  0  0  0  0  0  0  0  0
    1.2322    0.4835    0.4211 C   0  0  0  0  0  0  0  0  0  0  0  0
    1.6717   -0.1918   -0.6598 C   0  0  0  0  0  0  0  0  0  0  0  0
    3.0185   -0.4354   -0.8568 C   0  0  0  0  0  0  0  0  0  0  0  0
    3.9523    0.0086    0.0483 C   0  0  0  0  0  0  0  0  0  0  0  0
    5.3989   -0.2465   -0.1491 C   0  0  0  0  0  0  0  0  0  0  0  0
    5.9156    0.8145   -0.9853 N   0  0  0  0  0  0  0  0  0  0  0  0
    7.3244    0.6123   -1.2155 C   0  0  0  0  0  0  0  0  0  0  0  0
    8.1078    0.8210    0.0375 C   0  0  0  0  0  0  0  0  0  0  0  0
    9.6107    0.6217   -0.1350 C   0  0  0  0  0  0  0  0  0  0  0  0
    9.0738    1.9586    0.1428 C   0  0  0  0  0  0  0  0  0  0  0  0
    3.4598    0.6962    1.1376 C   0  0  0  0  0  0  0  0  0  0  0  0
    2.1732    0.9184    1.3100 N   0  0  0  0  0  0  0  0  0  0  0  0
   -3.7134    3.4226   -0.9639 H   0  0  0  0  0  0  0  0  0  0  0  0
   -4.6377    4.3572    0.3612 H   0  0  0  0  0  0  0  0  0  0  0  0
   -4.9448    4.6467   -1.3555 H   0  0  0  0  0  0  0  0  0  0  0  0
   -6.1094    2.6399   -1.6709 H   0  0  0  0  0  0  0  0  0  0  0  0
   -6.6934    3.2472   -0.1258 H   0  0  0  0  0  0  0  0  0  0  0  0
   -6.3887    0.8581   -0.0636 H   0  0  0  0  0  0  0  0  0  0  0  0
   -4.6364    0.9471   -0.5398 H   0  0  0  0  0  0  0  0  0  0  0  0
   -6.0222    1.9358    2.0484 H   0  0  0  0  0  0  0  0  0  0  0  0
   -4.8861    0.5169    1.8034 H   0  0  0  0  0  0  0  0  0  0  0  0
   -3.9993    3.2396    2.2926 H   0  0  0  0  0  0  0  0  0  0  0  0
    0.5634    2.7019    1.6095 H   0  0  0  0  0  0  0  0  0  0  0  0
   -0.3845   -1.6799   -0.2566 H   0  0  0  0  0  0  0  0  0  0  0  0
   -3.1174   -1.0527   -0.9577 H   0  0  0  0  0  0  0  0  0  0  0  0
   -4.2263   -1.7049    0.9044 H   0  0  0  0  0  0  0  0  0  0  0  0
   -2.6172   -1.6855    1.7571 H   0  0  0  0  0  0  0  0  0  0  0  0
   -2.2792   -4.0178    1.1653 H   0  0  0  0  0  0  0  0  0  0  0  0
   -3.8876   -3.7675    1.9765 H   0  0  0  0  0  0  0  0  0  0  0  0
   -3.9406   -5.3125   -0.1354 H   0  0  0  0  0  0  0  0  0  0  0  0
   -5.8118   -4.2879    0.7860 H   0  0  0  0  0  0  0  0  0  0  0  0
   -4.2444   -2.9121   -1.8569 H   0  0  0  0  0  0  0  0  0  0  0  0
   -3.4822   -4.5125   -2.1804 H   0  0  0  0  0  0  0  0  0  0  0  0
   -1.8087   -2.7137   -2.2259 H   0  0  0  0  0  0  0  0  0  0  0  0
   -1.4758   -3.6636   -0.7643 H   0  0  0  0  0  0  0  0  0  0  0  0
    0.9924   -0.5291   -1.4276 H   0  0  0  0  0  0  0  0  0  0  0  0
    3.3703   -0.9863   -1.7373 H   0  0  0  0  0  0  0  0  0  0  0  0
    5.8481   -0.2976    0.8417 H   0  0  0  0  0  0  0  0  0  0  0  0
    5.5644   -1.2397   -0.6233 H   0  0  0  0  0  0  0  0  0  0  0  0
    5.4185    0.9076   -1.8756 H   0  0  0  0  0  0  0  0  0  0  0  0
    7.4262   -0.4492   -1.5891 H   0  0  0  0  0  0  0  0  0  0  0  0
    7.6887    1.2335   -2.0641 H   0  0  0  0  0  0  0  0  0  0  0  0
    7.6666    0.5145    1.0066 H   0  0  0  0  0  0  0  0  0  0  0  0
   10.0034    0.4188   -1.1323 H   0  0  0  0  0  0  0  0  0  0  0  0
   10.0724   -0.0002    0.6630 H   0  0  0  0  0  0  0  0  0  0  0  0
    9.1050    2.7346   -0.6617 H   0  0  0  0  0  0  0  0  0  0  0  0
    9.2682    2.4035    1.1387 H   0  0  0  0  0  0  0  0  0  0  0  0
    4.1839    1.0516    1.8570 H   0  0  0  0  0  0  0  0  0  0  0  0
  1  2  1  0
  2  3  1  0
  3  4  1  0
  4  5  1  0
  5  6  1  0
  6  7  2  0
  7  8  1  0
  8  9  2  0
  9 10  1  0
 10 11  1  0
 11 12  1  0
 12 13  1  0
 13 14  1  0
 14 15  1  0
 15 16  1  0
 15 17  1  0
 17 18  1  0
 10 19  2  0
  9 20  1  0
 20 21  2  0
 21 22  1  0
 22 23  2  0
 23 24  1  0
 24 25  1  0
 25 26  1  0
 26 27  1  0
 27 28  1  0
 28 29  1  0
 23 30  1  0
 30 31  2  0
 19  6  1  0
 31 20  1  0
 18 12  1  0
 29 27  1  0
  1 32  1  0
  1 33  1  0
  1 34  1  0
  2 35  1  0
  2 36  1  0
  3 37  1  0
  3 38  1  0
  4 39  1  0
  4 40  1  0
  5 41  1  0
  8 42  1  0
 11 43  1  0
 12 44  1  0
 13 45  1  0
 13 46  1  0
 14 47  1  0
 14 48  1  0
 15 49  1  0
 16 50  1  0
 17 51  1  0
 17 52  1  0
 18 53  1  0
 18 54  1  0
 21 55  1  0
 22 56  1  0
 24 57  1  0
 24 58  1  0
 25 59  1  0
 26 60  1  0
 26 61  1  0
 27 62  1  0
 28 63  1  0
 28 64  1  0
 29 65  1  0
 29 66  1  0
 30 67  1  0
M  END
$$$$
[H]O[C@]1([H])C([H])([H])C([H])([H])[C@@]([H])(N([H])c2nc(N([H])C([H])([H])C([H])([H])C([H])([H])C([H])([H])[H])nc([H])c2C(=O)N([H])C([H])([H])c2c([H])c([H])c([H])c(OC([H])([H])[H])c2[H])C([H])([H])C1([H])[H]
     RDKit          3D

 64 66  0  0  0  0  0  0  0  0999 V2000
   -4.6128    4.1161   -0.9278 C   0  0  0  0  0  0  0  0  0  0  0  0
   -3.9284    3.9224    0.3989 C   0  0  0  0  0  0  0  0  0  0  0  0
   -4.1681    2.5069    0.9330 C   0  0  0  0  0  0  0  0  0  0  0  0
   -3.4759    2.3288    2.2618 C   0  0  0  0  0  0  0  0  0  0  0  0
   -2.0564    2.5276    2.1963 N   0  0  0  0  0  0  0  0  0  0  0  0
   -1.1473    1.7264    1.4591 C   0  0  0  0  0  0  0  0  0  0  0  0
    0.1610    1.9732    1.4392 N   0  0  0  0  0  0  0  0  0  0  0  0
    1.0447    1.2249    0.7566 C   0  0  0  0  0  0  0  0  0  0  0  0
    0.6010    0.1245    0.0198 C   0  0  0  0  0  0  0  0  0  0  0  0
    1.5165   -0.6957   -0.7061 C   0  0  0  0  0  0  0  0  0  0  0  0
    1.1707   -1.6878   -1.3618 O   0  0  0  0  0  0  0  0  0  0  0  0
    2.9060   -0.4023   -0.7085 N   0  0  0  0  0  0  0  0  0  0  0  0
    3.8281   -1.2400   -1.4455 C   0  0  0  0  0  0  0  0  0  0  0  0
    5.2068   -0.7826   -1.2200 C   0  0  0  0  0  0  0  0  0  0  0  0
    6.1257   -0.9708   -2.2362 C   0  0  0  0  0  0  0  0  0  0  0  0
    7.4337   -0.5824   -2.1154 C   0  0  0  0  0  0  0  0  0  0  0  0
    7.8724    0.0191   -0.9492 C   0  0  0  0  0  0  0  0  0  0  0  0
    6.9830    0.2189    0.0770 C   0  0  0  0  0  0  0  0  0  0  0  0
    7.4184    0.8170    1.2373 O   0  0  0  0  0  0  0  0  0  0  0  0
    8.7568    1.2326    1.4029 C   0  0  0  0  0  0  0  0  0  0  0  0
    5.6820   -0.1816   -0.0768 C   0  0  0  0  0  0  0  0  0  0  0  0
   -0.7453   -0.1196    0.0471 C   0  0  0  0  0  0  0  0  0  0  0  0
   -1.3825   -1.1713   -0.6562 N   0  0  0  0  0  0  0  0  0  0  0  0
   -2.8414   -1.3521   -0.5197 C   0  0  1  0  0  0  0  0  0  0  0  0
   -3.2718   -2.4084   -1.4795 C   0  0  0  0  0  0  0  0  0  0  0  0
   -4.6529   -2.9533   -1.1927 C   0  0  0  0  0  0  0  0  0  0  0  0
   -4.7886   -3.3775    0.2573 C   0  0  2  0  0  0  0  0  0  0  0  0
   -5.6449   -2.5179    0.9454 O   0  0  0  0  0  0  0  0  0  0  0  0
   -3.4219   -3.2707    0.8846 C   0  0  0  0  0  0  0  0  0  0  0  0
   -3.0666   -1.7783    0.9307 C   0  0  0  0  0  0  0  0  0  0  0  0
   -1.5901    0.6852    0.7654 N   0  0  0  0  0  0  0  0  0  0  0  0
   -5.3173    4.9702   -0.9179 H   0  0  0  0  0  0  0  0  0  0  0  0
   -3.8448    4.2068   -1.7074 H   0  0  0  0  0  0  0  0  0  0  0  0
   -5.1703    3.1644   -1.1665 H   0  0  0  0  0  0  0  0  0  0  0  0
   -2.8340    3.9926    0.2672 H   0  0  0  0  0  0  0  0  0  0  0  0
   -4.3311    4.6707    1.0956 H   0  0  0  0  0  0  0  0  0  0  0  0
   -3.8530    1.7272    0.2374 H   0  0  0  0  0  0  0  0  0  0  0  0
   -5.2796    2.3701    1.0481 H   0  0  0  0  0  0  0  0  0  0  0  0
   -3.9196    3.0835    2.9489 H   0  0  0  0  0  0  0  0  0  0  0  0
   -3.6592    1.3108    2.6811 H   0  0  0  0  0  0  0  0  0  0  0  0
   -1.6180    3.3372    2.7366 H   0  0  0  0  0  0  0  0  0  0  0  0
    2.0798    1.5147    0.8102 H   0  0  0  0  0  0  0  0  0  0  0  0
    3.2696    0.4040   -0.1946 H   0  0  0  0  0  0  0  0  0  0  0  0
    3.6859   -2.3112   -1.1808 H   0  0  0  0  0  0  0  0  0  0  0  0
    3.6096   -1.1356   -2.5503 H   0  0  0  0  0  0  0  0  0  0  0  0
    5.8334   -1.4411   -3.1819 H   0  0  0  0  0  0  0  0  0  0  0  0
    8.1187   -0.7472   -2.9312 H   0  0  0  0  0  0  0  0  0  0  0  0
    8.9223    0.3275   -0.8610 H   0  0  0  0  0  0  0  0  0  0  0  0
    8.9514    2.0525    0.6801 H   0  0  0  0  0  0  0  0  0  0  0  0
    8.9817    1.5191    2.4431 H   0  0  0  0  0  0  0  0  0  0  0  0
    9.4432    0.3903    1.1077 H   0  0  0  0  0  0  0  0  0  0  0  0
    4.9819   -0.0188    0.7570 H   0  0  0  0  0  0  0  0  0  0  0  0
   -0.9422   -1.8582   -1.2832 H   0  0  0  0  0  0  0  0  0  0  0  0
   -3.3494   -0.4072   -0.7555 H   0  0  0  0  0  0  0  0  0  0  0  0
   -2.5675   -3.2266   -1.6258 H   0  0  0  0  0  0  0  0  0  0  0  0
   -3.3688   -1.9082   -2.4904 H   0  0  0  0  0  0  0  0  0  0  0  0
   -5.3999   -2.1766   -1.4337 H   0  0  0  0  0  0  0  0  0  0  0  0
   -4.8123   -3.8163   -1.8410 H   0  0  0  0  0  0  0  0  0  0  0  0
   -5.1143   -4.4507    0.3425 H   0  0  0  0  0  0  0  0  0  0  0  0
   -6.3467   -3.0890    1.3975 H   0  0  0  0  0  0  0  0  0  0  0  0
   -3.3969   -3.6970    1.9105 H   0  0  0  0  0  0  0  0  0  0  0  0
   -2.6282   -3.7919    0.3244 H   0  0  0  0  0  0  0  0  0  0  0  0
   -3.8969   -1.2291    1.3864 H   0  0  0  0  0  0  0  0  0  0  0  0
   -2.1393   -1.6683    1.5299 H   0  0  0  0  0  0  0  0  0  0  0  0
  1  2  1  0
  2  3  1  0
  3  4  1  0
  4  5  1  0
  5  6  1  0
  6  7  2  0
  7  8  1  0
  8  9  2  0
  9 10  1  0
 10 11  2  0
 10 12  1  0
 12 13  1  0
 13 14  1  0
 14 15  2  0
 15 16  1  0
 16 17  2  0
 17 18  1  0
 18 19  1  0
 19 20  1  0
 18 21  2  0
  9 22  1  0
 22 23  1  0
 23 24  1  0
 24 25  1  0
 25 26  1  0
 26 27  1  0
 27 28  1  0
 27 29  1  0
 29 30  1  0
 22 31  2  0
 31  6  1  0
 21 14  1  0
 30 24  1  0
  1 32  1  0
  1 33  1  0
  1 34  1  0
  2 35  1  0
  2 36  1  0
  3 37  1  0
  3 38  1  0
  4 39  1  0
  4 40  1  0
  5 41  1  0
  8 42  1  0
 12 43  1  0
 13 44  1  0
 13 45  1  0
 15 46  1  0
 16 47  1  0
 17 48  1  0
 20 49  1  0
 20 50  1  0
 20 51  1  0
 21 52  1  0
 23 53  1  0
 24 54  1  6
 25 55  1  0
 25 56  1  0
 26 57  1  0
 26 58  1  0
 27 59  1  6
 28 60  1  0
 29 61  1  0
 29 62  1  0
 30 63  1  0
 30 64  1  0
M  END
$$$$
[H]O[C@]1([H])C([H])([H])C([H])([H])[C@@]([H])(n2c([H])c(-c3c([H])c([H])c(C([H])([H])N4C5([H])C([H])([H])C([H])([H])C4([H])C([H])([H])C5([H])[H])c([H])c3[H])c3c([H])nc(N([H])[C@@]([H])(C([H])([H])[H])C([H])([H])C([H])([H])C([H])([H])[H])nc32)C([H])([H])C1([H])[H]
     RDKit          3D

 77 82  0  0  0  0  0  0  0  0999 V2000
   -8.8473   -3.1747    1.0076 C   0  0  0  0  0  0  0  0  0  0  0  0
   -7.3438   -2.9414    1.1176 C   0  0  0  0  0  0  0  0  0  0  0  0
   -6.7729   -3.2232   -0.2620 C   0  0  0  0  0  0  0  0  0  0  0  0
   -5.2692   -3.0271   -0.2939 C   0  0  2  0  0  0  0  0  0  0  0  0
   -4.5590   -3.9279    0.6619 C   0  0  0  0  0  0  0  0  0  0  0  0
   -4.9147   -1.6385   -0.1251 N   0  0  0  0  0  0  0  0  0  0  0  0
   -3.5722   -1.1785   -0.1146 C   0  0  0  0  0  0  0  0  0  0  0  0
   -2.5653   -2.0562   -0.2670 N   0  0  0  0  0  0  0  0  0  0  0  0
   -1.2612   -1.6951   -0.2678 C   0  0  0  0  0  0  0  0  0  0  0  0
   -0.9250   -0.3482   -0.1033 C   0  0  0  0  0  0  0  0  0  0  0  0
    0.2483    0.3653   -0.0537 C   0  0  0  0  0  0  0  0  0  0  0  0
   -0.1366    1.6742    0.1314 C   0  0  0  0  0  0  0  0  0  0  0  0
   -1.4762    1.7510    0.1914 N   0  0  0  0  0  0  0  0  0  0  0  0
   -2.2061    2.9693    0.3781 C   0  0  1  0  0  0  0  0  0  0  0  0
   -1.2326    4.1228    0.4193 C   0  0  0  0  0  0  0  0  0  0  0  0
   -1.9418    5.4531    0.2166 C   0  0  0  0  0  0  0  0  0  0  0  0
   -2.4268    5.5147   -1.1992 C   0  0  2  0  0  0  0  0  0  0  0  0
   -3.6561    6.1664   -1.2242 O   0  0  0  0  0  0  0  0  0  0  0  0
   -2.5617    4.1098   -1.8021 C   0  0  0  0  0  0  0  0  0  0  0  0
   -3.2058    3.2620   -0.6991 C   0  0  0  0  0  0  0  0  0  0  0  0
   -1.9848    0.5117    0.0485 C   0  0  0  0  0  0  0  0  0  0  0  0
   -3.2516    0.1167    0.0435 N   0  0  0  0  0  0  0  0  0  0  0  0
    1.5865   -0.1909   -0.1722 C   0  0  0  0  0  0  0  0  0  0  0  0
    1.8952   -1.3182    0.5578 C   0  0  0  0  0  0  0  0  0  0  0  0
    3.1692   -1.8523    0.4449 C   0  0  0  0  0  0  0  0  0  0  0  0
    4.0861   -1.2351   -0.3963 C   0  0  0  0  0  0  0  0  0  0  0  0
    5.4369   -1.8382   -0.4926 C   0  0  0  0  0  0  0  0  0  0  0  0
    6.2311   -1.3484    0.5990 N   0  0  0  0  0  0  0  0  0  0  0  0
    7.5901   -1.9190    0.5898 C   0  0  0  0  0  0  0  0  0  0  0  0
    8.1260   -1.3848   -0.6964 C   0  0  0  0  0  0  0  0  0  0  0  0
    7.4903    0.0027   -0.7622 C   0  0  0  0  0  0  0  0  0  0  0  0
    6.6028    0.0474    0.4572 C   0  0  0  0  0  0  0  0  0  0  0  0
    7.5114    0.2256    1.6540 C   0  0  0  0  0  0  0  0  0  0  0  0
    8.1986   -1.1347    1.7322 C   0  0  0  0  0  0  0  0  0  0  0  0
    3.7745   -0.1086   -1.1245 C   0  0  0  0  0  0  0  0  0  0  0  0
    2.5167    0.4141   -1.0096 C   0  0  0  0  0  0  0  0  0  0  0  0
   -9.2553   -2.3237    0.3976 H   0  0  0  0  0  0  0  0  0  0  0  0
   -8.9872   -4.1349    0.4483 H   0  0  0  0  0  0  0  0  0  0  0  0
   -9.3360   -3.1996    1.9949 H   0  0  0  0  0  0  0  0  0  0  0  0
   -7.2238   -1.8751    1.3954 H   0  0  0  0  0  0  0  0  0  0  0  0
   -6.8953   -3.6358    1.8407 H   0  0  0  0  0  0  0  0  0  0  0  0
   -7.2798   -2.5806   -1.0098 H   0  0  0  0  0  0  0  0  0  0  0  0
   -7.0476   -4.2654   -0.5193 H   0  0  0  0  0  0  0  0  0  0  0  0
   -4.9562   -3.3050   -1.3315 H   0  0  0  0  0  0  0  0  0  0  0  0
   -4.1763   -3.2878    1.4965 H   0  0  0  0  0  0  0  0  0  0  0  0
   -3.6792   -4.3639    0.1806 H   0  0  0  0  0  0  0  0  0  0  0  0
   -5.2321   -4.6664    1.1460 H   0  0  0  0  0  0  0  0  0  0  0  0
   -5.6844   -0.9481   -0.0062 H   0  0  0  0  0  0  0  0  0  0  0  0
   -0.4617   -2.3948   -0.3909 H   0  0  0  0  0  0  0  0  0  0  0  0
    0.6074    2.4774    0.2088 H   0  0  0  0  0  0  0  0  0  0  0  0
   -2.7428    2.9888    1.3666 H   0  0  0  0  0  0  0  0  0  0  0  0
   -0.5121    4.0481   -0.4481 H   0  0  0  0  0  0  0  0  0  0  0  0
   -0.6038    4.1176    1.3196 H   0  0  0  0  0  0  0  0  0  0  0  0
   -1.1764    6.2383    0.3752 H   0  0  0  0  0  0  0  0  0  0  0  0
   -2.7287    5.6236    0.9708 H   0  0  0  0  0  0  0  0  0  0  0  0
   -1.7321    6.1239   -1.8057 H   0  0  0  0  0  0  0  0  0  0  0  0
   -3.4680    7.1141   -0.9712 H   0  0  0  0  0  0  0  0  0  0  0  0
   -1.6052    3.7060   -2.1355 H   0  0  0  0  0  0  0  0  0  0  0  0
   -3.3142    4.1955   -2.6170 H   0  0  0  0  0  0  0  0  0  0  0  0
   -3.7180    2.3884   -1.1072 H   0  0  0  0  0  0  0  0  0  0  0  0
   -3.9875    3.9175   -0.2573 H   0  0  0  0  0  0  0  0  0  0  0  0
    1.1985   -1.8199    1.2249 H   0  0  0  0  0  0  0  0  0  0  0  0
    3.4405   -2.7242    0.9960 H   0  0  0  0  0  0  0  0  0  0  0  0
    5.3804   -2.9453   -0.5073 H   0  0  0  0  0  0  0  0  0  0  0  0
    5.8391   -1.5494   -1.4856 H   0  0  0  0  0  0  0  0  0  0  0  0
    7.6046   -2.9897    0.7129 H   0  0  0  0  0  0  0  0  0  0  0  0
    7.8134   -2.0371   -1.5202 H   0  0  0  0  0  0  0  0  0  0  0  0
    9.2371   -1.2638   -0.6473 H   0  0  0  0  0  0  0  0  0  0  0  0
    6.9558    0.1718   -1.6981 H   0  0  0  0  0  0  0  0  0  0  0  0
    8.2710    0.7742   -0.6706 H   0  0  0  0  0  0  0  0  0  0  0  0
    5.7842    0.7451    0.4121 H   0  0  0  0  0  0  0  0  0  0  0  0
    8.2453    1.0165    1.3752 H   0  0  0  0  0  0  0  0  0  0  0  0
    6.9805    0.4831    2.5748 H   0  0  0  0  0  0  0  0  0  0  0  0
    9.2727   -0.9998    1.4830 H   0  0  0  0  0  0  0  0  0  0  0  0
    8.0662   -1.6098    2.7077 H   0  0  0  0  0  0  0  0  0  0  0  0
    4.5377    0.3431   -1.7788 H   0  0  0  0  0  0  0  0  0  0  0  0
    2.2162    1.2813   -1.5454 H   0  0  0  0  0  0  0  0  0  0  0  0
  1  2  1  0
  2  3  1  0
  3  4  1  0
  4  5  1  0
  4  6  1  0
  6  7  1  0
  7  8  2  0
  8  9  1  0
  9 10  2  0
 10 11  1  0
 11 12  2  0
 12 13  1  0
 13 14  1  0
 14 15  1  0
 15 16  1  0
 16 17  1  0
 17 18  1  0
 17 19  1  0
 19 20  1  0
 13 21  1  0
 21 22  2  0
 11 23  1  0
 23 24  2  0
 24 25  1  0
 25 26  2  0
 26 27  1  0
 27 28  1  0
 28 29  1  0
 29 30  1  0
 30 31  1  0
 31 32  1  0
 32 33  1  0
 33 34  1  0
 26 35  1  0
 35 36  2  0
 22  7  1  0
 36 23  1  0
 21 10  1  0
 32 28  1  0
 20 14  1  0
 34 29  1  0
  1 37  1  0
  1 38  1  0
  1 39  1  0
  2 40  1  0
  2 41  1  0
  3 42  1  0
  3 43  1  0
  4 44  1  6
  5 45  1  0
  5 46  1  0
  5 47  1  0
  6 48  1  0
  9 49  1  0
 12 50  1  0
 14 51  1  1
 15 52  1  0
 15 53  1  0
 16 54  1  0
 16 55  1  0
 17 56  1  6
 18 57  1  0
 19 58  1  0
 19 59  1  0
 20 60  1  0
 20 61  1  0
 24 62  1  0
 25 63  1  0
 27 64  1  0
 27 65  1  0
 29 66  1  0
 30 67  1  0
 30 68  1  0
 31 69  1  0
 31 70  1  0
 32 71  1  0
 33 72  1  0
 33 73  1  0
 34 74  1  0
 34 75  1  0
 35 76  1  0
 36 77  1  0
M  END
$$$$
[H]OC([H])(c1c([H])c([H])c(-c2c([H])nc(N([H])[H])c(C(=O)N([H])[C@@]3([H])C([H])([H])C([H])([H])C([H])([H])[C@]3([H])OC([H])([H])c3c([H])c([H])c(C([H])([H])[H])c(C([H])([H])[H])c3[H])c2[H])c([H])c1[H])C([H])([H])[H]
     RDKit          3D

 67 70  0  0  0  0  0  0  0  0999 V2000
    4.7676   -3.9237    3.5806 C   0  0  0  0  0  0  0  0  0  0  0  0
    5.2547   -4.4346    2.2194 C   0  0  0  0  0  0  0  0  0  0  0  0
    6.6477   -4.5218    2.2862 O   0  0  0  0  0  0  0  0  0  0  0  0
    4.9105   -3.4333    1.1778 C   0  0  0  0  0  0  0  0  0  0  0  0
    5.5902   -3.3836   -0.0186 C   0  0  0  0  0  0  0  0  0  0  0  0
    5.2353   -2.4341   -0.9547 C   0  0  0  0  0  0  0  0  0  0  0  0
    4.2142   -1.5221   -0.7360 C   0  0  0  0  0  0  0  0  0  0  0  0
    3.5687   -1.6127    0.4700 C   0  0  0  0  0  0  0  0  0  0  0  0
    3.8807   -2.5489    1.4544 C   0  0  0  0  0  0  0  0  0  0  0  0
    3.8780   -0.5363   -1.7499 C   0  0  0  0  0  0  0  0  0  0  0  0
    4.8468   -0.0188   -2.5905 C   0  0  0  0  0  0  0  0  0  0  0  0
    4.5119    0.9029   -3.5294 N   0  0  0  0  0  0  0  0  0  0  0  0
    3.2254    1.3413   -3.6709 C   0  0  0  0  0  0  0  0  0  0  0  0
    2.9714    2.3047   -4.6797 N   0  0  0  0  0  0  0  0  0  0  0  0
    2.2320    0.8517   -2.8551 C   0  0  0  0  0  0  0  0  0  0  0  0
    2.5965   -0.0795   -1.9135 C   0  0  0  0  0  0  0  0  0  0  0  0
    0.8795    1.3331   -3.0156 C   0  0  0  0  0  0  0  0  0  0  0  0
    0.6753    2.2240   -3.9094 O   0  0  0  0  0  0  0  0  0  0  0  0
   -0.2210    0.8784   -2.2488 N   0  0  0  0  0  0  0  0  0  0  0  0
   -1.5265    1.4177   -2.4807 C   0  0  1  0  0  0  0  0  0  0  0  0
   -2.4612    0.3598   -3.1118 C   0  0  0  0  0  0  0  0  0  0  0  0
   -3.7797    1.1173   -3.0142 C   0  0  0  0  0  0  0  0  0  0  0  0
   -3.6624    2.0120   -1.7723 C   0  0  0  0  0  0  0  0  0  0  0  0
   -2.3102    1.6754   -1.2181 C   0  0  2  0  0  0  0  0  0  0  0  0
   -1.7695    2.4895   -0.3076 O   0  0  0  0  0  0  0  0  0  0  0  0
   -1.4979    1.9839    0.9420 C   0  0  0  0  0  0  0  0  0  0  0  0
   -2.7339    1.4837    1.6444 C   0  0  0  0  0  0  0  0  0  0  0  0
   -3.0202    0.1504    1.7441 C   0  0  0  0  0  0  0  0  0  0  0  0
   -4.1518   -0.2647    2.3808 C   0  0  0  0  0  0  0  0  0  0  0  0
   -5.0657    0.5898    2.9549 C   0  0  0  0  0  0  0  0  0  0  0  0
   -6.2984    0.1336    3.6469 C   0  0  0  0  0  0  0  0  0  0  0  0
   -4.7371    1.9504    2.8314 C   0  0  0  0  0  0  0  0  0  0  0  0
   -5.6927    2.9171    3.4401 C   0  0  0  0  0  0  0  0  0  0  0  0
   -3.6056    2.3894    2.1959 C   0  0  0  0  0  0  0  0  0  0  0  0
    4.9959   -2.8343    3.6869 H   0  0  0  0  0  0  0  0  0  0  0  0
    5.3923   -4.4439    4.3479 H   0  0  0  0  0  0  0  0  0  0  0  0
    3.7073   -4.1574    3.7606 H   0  0  0  0  0  0  0  0  0  0  0  0
    4.7755   -5.4095    2.0438 H   0  0  0  0  0  0  0  0  0  0  0  0
    7.0532   -3.8145    1.7514 H   0  0  0  0  0  0  0  0  0  0  0  0
    6.4050   -4.0906   -0.2246 H   0  0  0  0  0  0  0  0  0  0  0  0
    5.7524   -2.3701   -1.9009 H   0  0  0  0  0  0  0  0  0  0  0  0
    2.7714   -0.9258    0.6774 H   0  0  0  0  0  0  0  0  0  0  0  0
    3.3527   -2.5988    2.3973 H   0  0  0  0  0  0  0  0  0  0  0  0
    5.8680   -0.3567   -2.4897 H   0  0  0  0  0  0  0  0  0  0  0  0
    2.4918    2.0067   -5.5499 H   0  0  0  0  0  0  0  0  0  0  0  0
    3.2545    3.2944   -4.5666 H   0  0  0  0  0  0  0  0  0  0  0  0
    1.8355   -0.4734   -1.2632 H   0  0  0  0  0  0  0  0  0  0  0  0
   -0.0793    0.1569   -1.5229 H   0  0  0  0  0  0  0  0  0  0  0  0
   -1.5403    2.2459   -3.2078 H   0  0  0  0  0  0  0  0  0  0  0  0
   -2.4687   -0.5278   -2.4505 H   0  0  0  0  0  0  0  0  0  0  0  0
   -2.2137    0.1656   -4.1529 H   0  0  0  0  0  0  0  0  0  0  0  0
   -3.8635    1.7190   -3.9488 H   0  0  0  0  0  0  0  0  0  0  0  0
   -4.6268    0.4353   -2.9695 H   0  0  0  0  0  0  0  0  0  0  0  0
   -3.7858    3.0313   -2.1256 H   0  0  0  0  0  0  0  0  0  0  0  0
   -4.4907    1.7485   -1.1142 H   0  0  0  0  0  0  0  0  0  0  0  0
   -2.4333    0.6494   -0.7533 H   0  0  0  0  0  0  0  0  0  0  0  0
   -0.9556    2.6435    1.6128 H   0  0  0  0  0  0  0  0  0  0  0  0
   -0.8645    1.0747    0.7894 H   0  0  0  0  0  0  0  0  0  0  0  0
   -2.3460   -0.5649    1.3166 H   0  0  0  0  0  0  0  0  0  0  0  0
   -4.4132   -1.3366    2.4791 H   0  0  0  0  0  0  0  0  0  0  0  0
   -6.2189    0.2364    4.7451 H   0  0  0  0  0  0  0  0  0  0  0  0
   -6.4314   -0.9408    3.3497 H   0  0  0  0  0  0  0  0  0  0  0  0
   -7.1596    0.6721    3.2181 H   0  0  0  0  0  0  0  0  0  0  0  0
   -5.1081    3.5825    4.1323 H   0  0  0  0  0  0  0  0  0  0  0  0
   -6.1493    3.5097    2.6256 H   0  0  0  0  0  0  0  0  0  0  0  0
   -6.4883    2.4177    4.0025 H   0  0  0  0  0  0  0  0  0  0  0  0
   -3.3711    3.4632    2.1119 H   0  0  0  0  0  0  0  0  0  0  0  0
  1  2  1  0
  2  3  1  0
  2  4  1  0
  4  5  2  0
  5  6  1  0
  6  7  2  0
  7  8  1  0
  8  9  2  0
  7 10  1  0
 10 11  2  0
 11 12  1  0
 12 13  2  0
 13 14  1  0
 13 15  1  0
 15 16  2  0
 15 17  1  0
 17 18  2  0
 17 19  1  0
 19 20  1  0
 20 21  1  0
 21 22  1  0
 22 23  1  0
 23 24  1  0
 24 25  1  0
 25 26  1  0
 26 27  1  0
 27 28  2  0
 28 29  1  0
 29 30  2  0
 30 31  1  0
 30 32  1  0
 32 33  1  0
 32 34  2  0
  9  4  1  0
 16 10  1  0
 24 20  1  0
 34 27  1  0
  1 35  1  0
  1 36  1  0
  1 37  1  0
  2 38  1  0
  3 39  1  0
  5 40  1  0
  6 41  1  0
  8 42  1  0
  9 43  1  0
 11 44  1  0
 14 45  1  0
 14 46  1  0
 16 47  1  0
 19 48  1  0
 20 49  1  6
 21 50  1  0
 21 51  1  0
 22 52  1  0
 22 53  1  0
 23 54  1  0
 23 55  1  0
 24 56  1  1
 26 57  1  0
 26 58  1  0
 28 59  1  0
 29 60  1  0
 31 61  1  0
 31 62  1  0
 31 63  1  0
 33 64  1  0
 33 65  1  0
 33 66  1  0
 34 67  1  0
M  END
$$$$
[H]c1nc(N2C([H])([H])C([H])([H])N([H])C([H])([H])C2([H])[H])c([H])c([H])c1-c1nn(C([H])([H])C2([H])C([H])([H])C([H])([H])N([H])C([H])([H])C2([H])[H])c2nc(N([H])C([H])([H])C([H])([H])C([H])([H])C([H])([H])[H])nc([H])c12
     RDKit          3D

 68 72  0  0  0  0  0  0  0  0999 V2000
   -5.4891    4.1166   -2.4170 C   0  0  0  0  0  0  0  0  0  0  0  0
   -5.0659    5.3610   -1.7448 C   0  0  0  0  0  0  0  0  0  0  0  0
   -4.7074    5.2222   -0.3167 C   0  0  0  0  0  0  0  0  0  0  0  0
   -3.5672    4.3284   -0.0609 C   0  0  0  0  0  0  0  0  0  0  0  0
   -3.6874    2.9418   -0.3576 N   0  0  0  0  0  0  0  0  0  0  0  0
   -2.5245    2.0961   -0.3247 C   0  0  0  0  0  0  0  0  0  0  0  0
   -1.3097    2.5803   -0.0211 N   0  0  0  0  0  0  0  0  0  0  0  0
   -0.1877    1.8460    0.0282 C   0  0  0  0  0  0  0  0  0  0  0  0
   -0.2915    0.4894   -0.2546 C   0  0  0  0  0  0  0  0  0  0  0  0
    0.5758   -0.5549   -0.3110 C   0  0  0  0  0  0  0  0  0  0  0  0
   -0.1149   -1.6514   -0.6449 N   0  0  0  0  0  0  0  0  0  0  0  0
   -1.3921   -1.3729   -0.8091 N   0  0  0  0  0  0  0  0  0  0  0  0
   -2.4841   -2.2346   -1.1643 C   0  0  0  0  0  0  0  0  0  0  0  0
   -3.1476   -2.8321    0.0872 C   0  0  0  0  0  0  0  0  0  0  0  0
   -2.1857   -3.6288    0.8754 C   0  0  0  0  0  0  0  0  0  0  0  0
   -2.6697   -4.9097    1.4367 C   0  0  0  0  0  0  0  0  0  0  0  0
   -4.1109   -4.7695    1.6928 N   0  0  0  0  0  0  0  0  0  0  0  0
   -4.7070   -4.7887    0.3454 C   0  0  0  0  0  0  0  0  0  0  0  0
   -4.4290   -3.4712   -0.2778 C   0  0  0  0  0  0  0  0  0  0  0  0
   -1.5421   -0.0384   -0.5728 C   0  0  0  0  0  0  0  0  0  0  0  0
   -2.6049    0.7836   -0.5949 N   0  0  0  0  0  0  0  0  0  0  0  0
    2.0123   -0.4750   -0.0576 C   0  0  0  0  0  0  0  0  0  0  0  0
    2.8998   -1.0680   -0.9159 C   0  0  0  0  0  0  0  0  0  0  0  0
    4.2471   -0.9728   -0.6406 C   0  0  0  0  0  0  0  0  0  0  0  0
    4.7198   -0.3026    0.4653 C   0  0  0  0  0  0  0  0  0  0  0  0
    3.7969    0.2569    1.2681 N   0  0  0  0  0  0  0  0  0  0  0  0
    2.4789    0.1936    1.0463 C   0  0  0  0  0  0  0  0  0  0  0  0
    6.1085   -0.1887    0.7479 N   0  0  0  0  0  0  0  0  0  0  0  0
    6.5047    0.3342    2.0308 C   0  0  0  0  0  0  0  0  0  0  0  0
    8.0126    0.1573    2.1687 C   0  0  0  0  0  0  0  0  0  0  0  0
    8.6403    0.8526    1.0864 N   0  0  0  0  0  0  0  0  0  0  0  0
    8.3587    0.2446   -0.1799 C   0  0  0  0  0  0  0  0  0  0  0  0
    7.0887   -0.5722   -0.2151 C   0  0  0  0  0  0  0  0  0  0  0  0
   -4.6214    3.5023   -2.6792 H   0  0  0  0  0  0  0  0  0  0  0  0
   -6.0445    4.3820   -3.3768 H   0  0  0  0  0  0  0  0  0  0  0  0
   -6.2189    3.5320   -1.8243 H   0  0  0  0  0  0  0  0  0  0  0  0
   -5.8544    6.1564   -1.8994 H   0  0  0  0  0  0  0  0  0  0  0  0
   -4.1731    5.7952   -2.3113 H   0  0  0  0  0  0  0  0  0  0  0  0
   -4.4038    6.2509    0.0509 H   0  0  0  0  0  0  0  0  0  0  0  0
   -5.6017    4.9982    0.3311 H   0  0  0  0  0  0  0  0  0  0  0  0
   -3.1438    4.4619    0.9837 H   0  0  0  0  0  0  0  0  0  0  0  0
   -2.7060    4.7287   -0.7046 H   0  0  0  0  0  0  0  0  0  0  0  0
   -4.5813    2.4939   -0.5729 H   0  0  0  0  0  0  0  0  0  0  0  0
    0.7805    2.2524    0.2712 H   0  0  0  0  0  0  0  0  0  0  0  0
   -3.2967   -1.7100   -1.7039 H   0  0  0  0  0  0  0  0  0  0  0  0
   -2.1763   -3.0841   -1.7895 H   0  0  0  0  0  0  0  0  0  0  0  0
   -3.3960   -1.9141    0.7041 H   0  0  0  0  0  0  0  0  0  0  0  0
   -1.7168   -3.0300    1.7123 H   0  0  0  0  0  0  0  0  0  0  0  0
   -1.3038   -3.8654    0.2090 H   0  0  0  0  0  0  0  0  0  0  0  0
   -2.2044   -5.1075    2.4184 H   0  0  0  0  0  0  0  0  0  0  0  0
   -2.4988   -5.7654    0.7417 H   0  0  0  0  0  0  0  0  0  0  0  0
   -4.2330   -3.7773    2.0387 H   0  0  0  0  0  0  0  0  0  0  0  0
   -5.7953   -4.9599    0.3869 H   0  0  0  0  0  0  0  0  0  0  0  0
   -4.2395   -5.6411   -0.2152 H   0  0  0  0  0  0  0  0  0  0  0  0
   -4.5033   -3.6041   -1.3980 H   0  0  0  0  0  0  0  0  0  0  0  0
   -5.3144   -2.8055   -0.0500 H   0  0  0  0  0  0  0  0  0  0  0  0
    2.5501   -1.6148   -1.8147 H   0  0  0  0  0  0  0  0  0  0  0  0
    4.9490   -1.4624   -1.3423 H   0  0  0  0  0  0  0  0  0  0  0  0
    1.7666    0.6755    1.7515 H   0  0  0  0  0  0  0  0  0  0  0  0
    6.2739    1.4150    2.1635 H   0  0  0  0  0  0  0  0  0  0  0  0
    6.0018   -0.1860    2.8721 H   0  0  0  0  0  0  0  0  0  0  0  0
    8.2455   -0.9370    2.1360 H   0  0  0  0  0  0  0  0  0  0  0  0
    8.3620    0.5992    3.1314 H   0  0  0  0  0  0  0  0  0  0  0  0
    8.2992    1.8414    1.0594 H   0  0  0  0  0  0  0  0  0  0  0  0
    9.2117   -0.4384   -0.4360 H   0  0  0  0  0  0  0  0  0  0  0  0
    8.3324    0.9802   -1.0120 H   0  0  0  0  0  0  0  0  0  0  0  0
    6.6712   -0.4886   -1.2389 H   0  0  0  0  0  0  0  0  0  0  0  0
    7.3575   -1.6468    0.0095 H   0  0  0  0  0  0  0  0  0  0  0  0
  1  2  1  0
  2  3  1  0
  3  4  1  0
  4  5  1  0
  5  6  1  0
  6  7  2  0
  7  8  1  0
  8  9  2  0
  9 10  1  0
 10 11  2  0
 11 12  1  0
 12 13  1  0
 13 14  1  0
 14 15  1  0
 15 16  1  0
 16 17  1  0
 17 18  1  0
 18 19  1  0
 12 20  1  0
 20 21  2  0
 10 22  1  0
 22 23  2  0
 23 24  1  0
 24 25  2  0
 25 26  1  0
 26 27  2  0
 25 28  1  0
 28 29  1  0
 29 30  1  0
 30 31  1  0
 31 32  1  0
 32 33  1  0
 21  6  1  0
 27 22  1  0
 33 28  1  0
 20  9  1  0
 19 14  1  0
  1 34  1  0
  1 35  1  0
  1 36  1  0
  2 37  1  0
  2 38  1  0
  3 39  1  0
  3 40  1  0
  4 41  1  0
  4 42  1  0
  5 43  1  0
  8 44  1  0
 13 45  1  0
 13 46  1  0
 14 47  1  0
 15 48  1  0
 15 49  1  0
 16 50  1  0
 16 51  1  0
 17 52  1  0
 18 53  1  0
 18 54  1  0
 19 55  1  0
 19 56  1  0
 23 57  1  0
 24 58  1  0
 27 59  1  0
 29 60  1  0
 29 61  1  0
 30 62  1  0
 30 63  1  0
 31 64  1  0
 32 65  1  0
 32 66  1  0
 33 67  1  0
 33 68  1  0
M  END
$$$$
[H]O[C@]1([H])C([H])([H])C([H])([H])[C@@]([H])(n2c([H])c(-c3c([H])c([H])c(N([H])C4([H])C([H])([H])C([H])([H])N([H])C([H])([H])C4([H])[H])c([H])c3[H])c3c([H])nc(N([H])[C@@]([H])(C([H])([H])[H])C([H])([H])C([H])([H])C([H])([H])[H])nc32)C([H])([H])C1([H])[H]
     RDKit          3D

 75 79  0  0  0  0  0  0  0  0999 V2000
   -5.2746   -5.6098    0.6453 C   0  0  0  0  0  0  0  0  0  0  0  0
   -5.4545   -4.4039    1.5431 C   0  0  0  0  0  0  0  0  0  0  0  0
   -5.0507   -3.1491    0.7988 C   0  0  0  0  0  0  0  0  0  0  0  0
   -5.2359   -1.9691    1.6918 C   0  0  2  0  0  0  0  0  0  0  0  0
   -6.6953   -1.8315    2.1355 C   0  0  0  0  0  0  0  0  0  0  0  0
   -4.8253   -0.7077    1.1438 N   0  0  0  0  0  0  0  0  0  0  0  0
   -3.4679   -0.4224    0.8644 C   0  0  0  0  0  0  0  0  0  0  0  0
   -2.5202   -1.3401    1.1208 N   0  0  0  0  0  0  0  0  0  0  0  0
   -1.2137   -1.1269    0.8758 C   0  0  0  0  0  0  0  0  0  0  0  0
   -0.8447    0.0723    0.3454 C   0  0  0  0  0  0  0  0  0  0  0  0
    0.3711    0.6098   -0.0194 C   0  0  0  0  0  0  0  0  0  0  0  0
    0.0912    1.8741   -0.4974 C   0  0  0  0  0  0  0  0  0  0  0  0
   -1.2288    2.1294   -0.4407 N   0  0  0  0  0  0  0  0  0  0  0  0
   -1.8956    3.3479   -0.8519 C   0  0  1  0  0  0  0  0  0  0  0  0
   -2.7723    3.1177   -2.0368 C   0  0  0  0  0  0  0  0  0  0  0  0
   -3.7125    4.2644   -2.2028 C   0  0  0  0  0  0  0  0  0  0  0  0
   -3.2464    5.5423   -1.5765 C   0  0  2  0  0  0  0  0  0  0  0  0
   -2.1798    6.1230   -2.2879 O   0  0  0  0  0  0  0  0  0  0  0  0
   -2.9371    5.4145   -0.1163 C   0  0  0  0  0  0  0  0  0  0  0  0
   -2.7180    3.9509    0.2542 C   0  0  0  0  0  0  0  0  0  0  0  0
   -1.7994    1.0331    0.0724 C   0  0  0  0  0  0  0  0  0  0  0  0
   -3.0926    0.7807    0.3318 N   0  0  0  0  0  0  0  0  0  0  0  0
    1.7089   -0.0218    0.0770 C   0  0  0  0  0  0  0  0  0  0  0  0
    2.7566    0.7276    0.5727 C   0  0  0  0  0  0  0  0  0  0  0  0
    4.0379    0.1927    0.6905 C   0  0  0  0  0  0  0  0  0  0  0  0
    4.2764   -1.1041    0.3094 C   0  0  0  0  0  0  0  0  0  0  0  0
    5.5566   -1.6960    0.3970 N   0  0  0  0  0  0  0  0  0  0  0  0
    6.7591   -0.9201    0.6829 C   0  0  0  0  0  0  0  0  0  0  0  0
    7.9386   -1.8418    0.9023 C   0  0  0  0  0  0  0  0  0  0  0  0
    9.0071   -1.5501   -0.1063 C   0  0  0  0  0  0  0  0  0  0  0  0
    8.5771   -1.6374   -1.4671 N   0  0  0  0  0  0  0  0  0  0  0  0
    7.2758   -1.0716   -1.6972 C   0  0  0  0  0  0  0  0  0  0  0  0
    7.0289   -0.0723   -0.5585 C   0  0  0  0  0  0  0  0  0  0  0  0
    3.2110   -1.8339   -0.1836 C   0  0  0  0  0  0  0  0  0  0  0  0
    1.9398   -1.3032   -0.3005 C   0  0  0  0  0  0  0  0  0  0  0  0
   -5.6480   -6.5218    1.1612 H   0  0  0  0  0  0  0  0  0  0  0  0
   -5.7634   -5.4859   -0.3440 H   0  0  0  0  0  0  0  0  0  0  0  0
   -4.1885   -5.7640    0.4513 H   0  0  0  0  0  0  0  0  0  0  0  0
   -4.8214   -4.5778    2.4356 H   0  0  0  0  0  0  0  0  0  0  0  0
   -6.5310   -4.3770    1.8253 H   0  0  0  0  0  0  0  0  0  0  0  0
   -5.7391   -3.0642   -0.0703 H   0  0  0  0  0  0  0  0  0  0  0  0
   -4.0224   -3.2751    0.4850 H   0  0  0  0  0  0  0  0  0  0  0  0
   -4.6041   -2.1812    2.6097 H   0  0  0  0  0  0  0  0  0  0  0  0
   -6.8374   -0.7712    2.4597 H   0  0  0  0  0  0  0  0  0  0  0  0
   -7.3064   -1.9591    1.2237 H   0  0  0  0  0  0  0  0  0  0  0  0
   -6.9485   -2.5309    2.9356 H   0  0  0  0  0  0  0  0  0  0  0  0
   -5.5274    0.0341    0.9373 H   0  0  0  0  0  0  0  0  0  0  0  0
   -0.4758   -1.8795    1.0916 H   0  0  0  0  0  0  0  0  0  0  0  0
    0.8288    2.5559   -0.8628 H   0  0  0  0  0  0  0  0  0  0  0  0
   -1.1259    4.1027   -1.1437 H   0  0  0  0  0  0  0  0  0  0  0  0
   -2.1042    3.0124   -2.9327 H   0  0  0  0  0  0  0  0  0  0  0  0
   -3.3898    2.1855   -1.9386 H   0  0  0  0  0  0  0  0  0  0  0  0
   -4.7357    4.0477   -1.8035 H   0  0  0  0  0  0  0  0  0  0  0  0
   -3.8351    4.4568   -3.2921 H   0  0  0  0  0  0  0  0  0  0  0  0
   -4.0886    6.2750   -1.6702 H   0  0  0  0  0  0  0  0  0  0  0  0
   -2.1481    5.8126   -3.2219 H   0  0  0  0  0  0  0  0  0  0  0  0
   -3.7174    5.8661    0.5328 H   0  0  0  0  0  0  0  0  0  0  0  0
   -1.9588    5.9228    0.1185 H   0  0  0  0  0  0  0  0  0  0  0  0
   -3.7227    3.4797    0.3050 H   0  0  0  0  0  0  0  0  0  0  0  0
   -2.2202    3.8747    1.2464 H   0  0  0  0  0  0  0  0  0  0  0  0
    2.5691    1.7644    0.8783 H   0  0  0  0  0  0  0  0  0  0  0  0
    4.8570    0.7881    1.0867 H   0  0  0  0  0  0  0  0  0  0  0  0
    5.6436   -2.7462    0.2490 H   0  0  0  0  0  0  0  0  0  0  0  0
    6.5666   -0.2289    1.5156 H   0  0  0  0  0  0  0  0  0  0  0  0
    7.5932   -2.8860    0.9021 H   0  0  0  0  0  0  0  0  0  0  0  0
    8.3438   -1.5769    1.9073 H   0  0  0  0  0  0  0  0  0  0  0  0
    9.8177   -2.3132    0.0740 H   0  0  0  0  0  0  0  0  0  0  0  0
    9.4189   -0.5308    0.1157 H   0  0  0  0  0  0  0  0  0  0  0  0
    9.2617   -1.1201   -2.0714 H   0  0  0  0  0  0  0  0  0  0  0  0
    6.4488   -1.8151   -1.6086 H   0  0  0  0  0  0  0  0  0  0  0  0
    7.1948   -0.5177   -2.6552 H   0  0  0  0  0  0  0  0  0  0  0  0
    6.1458    0.5023   -0.8778 H   0  0  0  0  0  0  0  0  0  0  0  0
    7.8623    0.6293   -0.4225 H   0  0  0  0  0  0  0  0  0  0  0  0
    3.4151   -2.8627   -0.4819 H   0  0  0  0  0  0  0  0  0  0  0  0
    1.1219   -1.8923   -0.6902 H   0  0  0  0  0  0  0  0  0  0  0  0
  1  2  1  0
  2  3  1  0
  3  4  1  0
  4  5  1  0
  4  6  1  0
  6  7  1  0
  7  8  2  0
  8  9  1  0
  9 10  2  0
 10 11  1  0
 11 12  2  0
 12 13  1  0
 13 14  1  0
 14 15  1  0
 15 16  1  0
 16 17  1  0
 17 18  1  0
 17 19  1  0
 19 20  1  0
 13 21  1  0
 21 22  2  0
 11 23  1  0
 23 24  2  0
 24 25  1  0
 25 26  2  0
 26 27  1  0
 27 28  1  0
 28 29  1  0
 29 30  1  0
 30 31  1  0
 31 32  1  0
 32 33  1  0
 26 34  1  0
 34 35  2  0
 22  7  1  0
 35 23  1  0
 21 10  1  0
 33 28  1  0
 20 14  1  0
  1 36  1  0
  1 37  1  0
  1 38  1  0
  2 39  1  0
  2 40  1  0
  3 41  1  0
  3 42  1  0
  4 43  1  1
  5 44  1  0
  5 45  1  0
  5 46  1  0
  6 47  1  0
  9 48  1  0
 12 49  1  0
 14 50  1  6
 15 51  1  0
 15 52  1  0
 16 53  1  0
 16 54  1  0
 17 55  1  1
 18 56  1  0
 19 57  1  0
 19 58  1  0
 20 59  1  0
 20 60  1  0
 24 61  1  0
 25 62  1  0
 27 63  1  0
 28 64  1  0
 29 65  1  0
 29 66  1  0
 30 67  1  0
 30 68  1  0
 31 69  1  0
 32 70  1  0
 32 71  1  0
 33 72  1  0
 33 73  1  0
 34 74  1  0
 35 75  1  0
M  END
$$$$
[H]OC([H])([H])C([H])([H])N1[C@@]([H])(C([H])([H])[H])C([H])([H])N(C([H])([H])c2c([H])c([H])c(-c3c([H])c([H])c(C([H])([H])O[C@@]4([H])C([H])([H])C([H])([H])C([H])([H])[C@]4([H])N([H])C(=O)c4c(N([H])[H])nc([H])c(-c5c([H])nn(C([H])([H])[H])c5[H])c4[H])c(F)c3[H])c([H])c2[H])C([H])([H])[C@@]1([H])C([H])([H])[H]
     RDKit          3D

 94 99  0  0  0  0  0  0  0  0999 V2000
    9.3653    1.1704    0.4941 C   0  0  0  0  0  0  0  0  0  0  0  0
    8.6667    0.2644   -0.5268 C   0  0  1  0  0  0  0  0  0  0  0  0
    7.2905    0.8404   -0.7294 C   0  0  0  0  0  0  0  0  0  0  0  0
    6.9226    0.7577   -2.0892 N   0  0  0  0  0  0  0  0  0  0  0  0
    6.1963   -0.3718   -2.5237 C   0  0  0  0  0  0  0  0  0  0  0  0
    4.8737   -0.4595   -1.8479 C   0  0  0  0  0  0  0  0  0  0  0  0
    4.2757    0.6806   -1.3741 C   0  0  0  0  0  0  0  0  0  0  0  0
    3.0493    0.5878   -0.7561 C   0  0  0  0  0  0  0  0  0  0  0  0
    2.3959   -0.6233   -0.5957 C   0  0  0  0  0  0  0  0  0  0  0  0
    3.0230   -1.7573   -1.0829 C   0  0  0  0  0  0  0  0  0  0  0  0
    4.2436   -1.6670   -1.6984 C   0  0  0  0  0  0  0  0  0  0  0  0
    1.0896   -0.6881    0.0582 C   0  0  0  0  0  0  0  0  0  0  0  0
    0.7108    0.1758    1.0596 C   0  0  0  0  0  0  0  0  0  0  0  0
   -0.5418    0.0692    1.6444 C   0  0  0  0  0  0  0  0  0  0  0  0
   -1.4614   -0.8849    1.2680 C   0  0  0  0  0  0  0  0  0  0  0  0
   -2.8034   -0.9983    1.8941 C   0  0  0  0  0  0  0  0  0  0  0  0
   -3.0127   -0.0544    2.8736 O   0  0  0  0  0  0  0  0  0  0  0  0
   -4.2440   -0.1316    3.4683 C   0  0  1  0  0  0  0  0  0  0  0  0
   -4.2059   -0.4959    4.9400 C   0  0  0  0  0  0  0  0  0  0  0  0
   -5.6081   -0.1238    5.3888 C   0  0  0  0  0  0  0  0  0  0  0  0
   -5.8230    1.1966    4.6861 C   0  0  0  0  0  0  0  0  0  0  0  0
   -5.1043    1.0821    3.3537 C   0  0  2  0  0  0  0  0  0  0  0  0
   -6.1355    0.9616    2.3445 N   0  0  0  0  0  0  0  0  0  0  0  0
   -6.3699    1.9182    1.3358 C   0  0  0  0  0  0  0  0  0  0  0  0
   -5.6512    2.9424    1.2948 O   0  0  0  0  0  0  0  0  0  0  0  0
   -7.4141    1.7515    0.3487 C   0  0  0  0  0  0  0  0  0  0  0  0
   -8.2548    0.6685    0.2842 C   0  0  0  0  0  0  0  0  0  0  0  0
   -9.2539    0.5107   -0.6687 C   0  0  0  0  0  0  0  0  0  0  0  0
   -9.3849    1.5281   -1.5991 C   0  0  0  0  0  0  0  0  0  0  0  0
   -8.5709    2.6010   -1.5556 N   0  0  0  0  0  0  0  0  0  0  0  0
   -7.6078    2.7278   -0.6176 C   0  0  0  0  0  0  0  0  0  0  0  0
   -6.8190    3.9127   -0.6869 N   0  0  0  0  0  0  0  0  0  0  0  0
  -10.1160   -0.6548   -0.6970 C   0  0  0  0  0  0  0  0  0  0  0  0
  -10.5473   -1.4057    0.3672 C   0  0  0  0  0  0  0  0  0  0  0  0
  -11.3293   -2.3963   -0.1364 N   0  0  0  0  0  0  0  0  0  0  0  0
  -11.4116   -2.3083   -1.4519 N   0  0  0  0  0  0  0  0  0  0  0  0
  -12.1663   -3.2076   -2.3259 C   0  0  0  0  0  0  0  0  0  0  0  0
  -10.6654   -1.2342   -1.8152 C   0  0  0  0  0  0  0  0  0  0  0  0
   -1.0675   -1.7474    0.2598 C   0  0  0  0  0  0  0  0  0  0  0  0
   -1.9503   -2.6930   -0.1295 F   0  0  0  0  0  0  0  0  0  0  0  0
    0.1692   -1.6555   -0.3300 C   0  0  0  0  0  0  0  0  0  0  0  0
    7.8381    1.3537   -2.9857 C   0  0  0  0  0  0  0  0  0  0  0  0
    9.2673    0.9298   -2.7855 C   0  0  1  0  0  0  0  0  0  0  0  0
   10.2088    2.1096   -2.6849 C   0  0  0  0  0  0  0  0  0  0  0  0
    9.4682    0.0895   -1.6512 N   0  0  0  0  0  0  0  0  0  0  0  0
   10.1130   -1.1357   -1.8974 C   0  0  0  0  0  0  0  0  0  0  0  0
   11.2245   -1.4700   -0.9381 C   0  0  0  0  0  0  0  0  0  0  0  0
   10.7911   -1.5651    0.3679 O   0  0  0  0  0  0  0  0  0  0  0  0
    8.9267    2.1774    0.3746 H   0  0  0  0  0  0  0  0  0  0  0  0
    9.2075    0.8397    1.5220 H   0  0  0  0  0  0  0  0  0  0  0  0
   10.4492    1.3011    0.2433 H   0  0  0  0  0  0  0  0  0  0  0  0
    8.5535   -0.7293   -0.0029 H   0  0  0  0  0  0  0  0  0  0  0  0
    7.2213    1.8936   -0.3804 H   0  0  0  0  0  0  0  0  0  0  0  0
    6.5749    0.2413   -0.1246 H   0  0  0  0  0  0  0  0  0  0  0  0
    5.9609   -0.2229   -3.6136 H   0  0  0  0  0  0  0  0  0  0  0  0
    6.7294   -1.3321   -2.4695 H   0  0  0  0  0  0  0  0  0  0  0  0
    4.7604    1.6695   -1.4798 H   0  0  0  0  0  0  0  0  0  0  0  0
    2.6083    1.5220   -0.3933 H   0  0  0  0  0  0  0  0  0  0  0  0
    2.5132   -2.7039   -0.9582 H   0  0  0  0  0  0  0  0  0  0  0  0
    4.7265   -2.5701   -2.0774 H   0  0  0  0  0  0  0  0  0  0  0  0
    1.4196    0.9468    1.3826 H   0  0  0  0  0  0  0  0  0  0  0  0
   -0.8171    0.7545    2.4251 H   0  0  0  0  0  0  0  0  0  0  0  0
   -3.5611   -0.9500    1.0681 H   0  0  0  0  0  0  0  0  0  0  0  0
   -2.8348   -2.0099    2.3951 H   0  0  0  0  0  0  0  0  0  0  0  0
   -4.7830   -0.9880    2.9721 H   0  0  0  0  0  0  0  0  0  0  0  0
   -3.4976    0.1017    5.5145 H   0  0  0  0  0  0  0  0  0  0  0  0
   -4.0778   -1.5761    5.0725 H   0  0  0  0  0  0  0  0  0  0  0  0
   -5.6838    0.0130    6.4665 H   0  0  0  0  0  0  0  0  0  0  0  0
   -6.3565   -0.8463    4.9937 H   0  0  0  0  0  0  0  0  0  0  0  0
   -6.9158    1.3257    4.5740 H   0  0  0  0  0  0  0  0  0  0  0  0
   -5.4572    2.0462    5.2847 H   0  0  0  0  0  0  0  0  0  0  0  0
   -4.5549    2.0203    3.1220 H   0  0  0  0  0  0  0  0  0  0  0  0
   -6.7304    0.1123    2.3809 H   0  0  0  0  0  0  0  0  0  0  0  0
   -8.1659   -0.1299    0.9980 H   0  0  0  0  0  0  0  0  0  0  0  0
  -10.1486    1.4594   -2.3678 H   0  0  0  0  0  0  0  0  0  0  0  0
   -6.1314    4.0720   -1.4730 H   0  0  0  0  0  0  0  0  0  0  0  0
   -6.8882    4.6664    0.0311 H   0  0  0  0  0  0  0  0  0  0  0  0
  -10.3295   -1.2691    1.4250 H   0  0  0  0  0  0  0  0  0  0  0  0
  -12.2975   -2.6693   -3.2855 H   0  0  0  0  0  0  0  0  0  0  0  0
  -13.1866   -3.3959   -1.9389 H   0  0  0  0  0  0  0  0  0  0  0  0
  -11.5935   -4.1338   -2.4574 H   0  0  0  0  0  0  0  0  0  0  0  0
  -10.5325   -0.8976   -2.8319 H   0  0  0  0  0  0  0  0  0  0  0  0
    0.4858   -2.3334   -1.1258 H   0  0  0  0  0  0  0  0  0  0  0  0
    7.8154    2.4649   -2.8121 H   0  0  0  0  0  0  0  0  0  0  0  0
    7.4873    1.2079   -4.0277 H   0  0  0  0  0  0  0  0  0  0  0  0
    9.5675    0.3645   -3.6924 H   0  0  0  0  0  0  0  0  0  0  0  0
    9.6511    2.9927   -2.3097 H   0  0  0  0  0  0  0  0  0  0  0  0
   10.6703    2.3601   -3.6623 H   0  0  0  0  0  0  0  0  0  0  0  0
   11.0550    1.9263   -1.9909 H   0  0  0  0  0  0  0  0  0  0  0  0
   10.5663   -1.1163   -2.9327 H   0  0  0  0  0  0  0  0  0  0  0  0
    9.3617   -1.9771   -1.8785 H   0  0  0  0  0  0  0  0  0  0  0  0
   11.6694   -2.4775   -1.1901 H   0  0  0  0  0  0  0  0  0  0  0  0
   12.0702   -0.7528   -1.0499 H   0  0  0  0  0  0  0  0  0  0  0  0
   10.8295   -2.4898    0.7292 H   0  0  0  0  0  0  0  0  0  0  0  0
  1  2  1  0
  2  3  1  0
  3  4  1  0
  4  5  1  0
  5  6  1  0
  6  7  2  0
  7  8  1  0
  8  9  2  0
  9 10  1  0
 10 11  2  0
  9 12  1  0
 12 13  2  0
 13 14  1  0
 14 15  2  0
 15 16  1  0
 16 17  1  0
 17 18  1  0
 18 19  1  0
 19 20  1  0
 20 21  1  0
 21 22  1  0
 22 23  1  0
 23 24  1  0
 24 25  2  0
 24 26  1  0
 26 27  2  0
 27 28  1  0
 28 29  2  0
 29 30  1  0
 30 31  2  0
 31 32  1  0
 28 33  1  0
 33 34  1  0
 34 35  2  0
 35 36  1  0
 36 37  1  0
 36 38  1  0
 15 39  1  0
 39 40  1  0
 39 41  2  0
  4 42  1  0
 42 43  1  0
 43 44  1  0
 43 45  1  0
 45 46  1  0
 46 47  1  0
 47 48  1  0
 45  2  1  0
 11  6  1  0
 41 12  1  0
 22 18  1  0
 31 26  1  0
 38 33  2  0
  1 49  1  0
  1 50  1  0
  1 51  1  0
  2 52  1  1
  3 53  1  0
  3 54  1  0
  5 55  1  0
  5 56  1  0
  7 57  1  0
  8 58  1  0
 10 59  1  0
 11 60  1  0
 13 61  1  0
 14 62  1  0
 16 63  1  0
 16 64  1  0
 18 65  1  6
 19 66  1  0
 19 67  1  0
 20 68  1  0
 20 69  1  0
 21 70  1  0
 21 71  1  0
 22 72  1  6
 23 73  1  0
 27 74  1  0
 29 75  1  0
 32 76  1  0
 32 77  1  0
 34 78  1  0
 37 79  1  0
 37 80  1  0
 37 81  1  0
 38 82  1  0
 41 83  1  0
 42 84  1  0
 42 85  1  0
 43 86  1  6
 44 87  1  0
 44 88  1  0
 44 89  1  0
 46 90  1  0
 46 91  1  0
 47 92  1  0
 47 93  1  0
 48 94  1  0
M  END
$$$$
[H]OC1([H])C([H])([H])C([H])([H])C([H])([H])n2c([H])c(-c3c([H])c([H])c(C([H])([H])N4C([H])([H])C([H])([H])N(C([H])([H])[H])C([H])([H])C4([H])[H])c([H])c3[H])c3c([H])nc(nc32)N([H])C([H])([H])C([H])([H])C([H])([H])C([H])([H])C([H])([H])C1([H])[H]
     RDKit          3D

 75 79  0  0  0  0  0  0  0  0999 V2000
    9.8554    1.7740    1.0109 C   0  0  0  0  0  0  0  0  0  0  0  0
    8.8576    1.2063    0.1394 N   0  0  0  0  0  0  0  0  0  0  0  0
    7.5560    1.4905    0.6710 C   0  0  0  0  0  0  0  0  0  0  0  0
    6.4562    0.8344   -0.1232 C   0  0  0  0  0  0  0  0  0  0  0  0
    6.7269   -0.4869   -0.5558 N   0  0  0  0  0  0  0  0  0  0  0  0
    6.1049   -1.5443    0.1700 C   0  0  0  0  0  0  0  0  0  0  0  0
    4.6264   -1.4152    0.0471 C   0  0  0  0  0  0  0  0  0  0  0  0
    4.0027   -0.7205   -0.9665 C   0  0  0  0  0  0  0  0  0  0  0  0
    2.6229   -0.6141   -1.0555 C   0  0  0  0  0  0  0  0  0  0  0  0
    1.7983   -1.2057   -0.1225 C   0  0  0  0  0  0  0  0  0  0  0  0
    2.4177   -1.9027    0.8946 C   0  0  0  0  0  0  0  0  0  0  0  0
    3.7887   -2.0110    0.9869 C   0  0  0  0  0  0  0  0  0  0  0  0
    0.3447   -1.0991   -0.2011 C   0  0  0  0  0  0  0  0  0  0  0  0
   -0.5825   -2.1387   -0.0660 C   0  0  0  0  0  0  0  0  0  0  0  0
   -1.8414   -1.6294   -0.2098 N   0  0  0  0  0  0  0  0  0  0  0  0
   -3.0786   -2.3538   -0.1429 C   0  0  0  0  0  0  0  0  0  0  0  0
   -4.2238   -1.5179    0.3207 C   0  0  0  0  0  0  0  0  0  0  0  0
   -5.3578   -2.3903    0.8703 C   0  0  0  0  0  0  0  0  0  0  0  0
   -6.4620   -1.4992    1.4161 C   0  0  0  0  0  0  0  0  0  0  0  0
   -5.8969   -0.4825    2.2147 O   0  0  0  0  0  0  0  0  0  0  0  0
   -7.2262   -0.8250    0.3251 C   0  0  0  0  0  0  0  0  0  0  0  0
   -7.5278    0.6258    0.6290 C   0  0  0  0  0  0  0  0  0  0  0  0
   -7.8052    1.4412   -0.6037 C   0  0  0  0  0  0  0  0  0  0  0  0
   -6.6287    1.6381   -1.4997 C   0  0  0  0  0  0  0  0  0  0  0  0
   -5.8569    2.9120   -1.2308 C   0  0  0  0  0  0  0  0  0  0  0  0
   -4.6783    2.6415   -0.3512 C   0  0  0  0  0  0  0  0  0  0  0  0
   -3.4019    2.7922   -1.0257 N   0  0  0  0  0  0  0  0  0  0  0  0
   -2.3337    1.8465   -0.8206 C   0  0  0  0  0  0  0  0  0  0  0  0
   -1.0467    2.2361   -0.8285 N   0  0  0  0  0  0  0  0  0  0  0  0
   -0.0415    1.3631   -0.6358 C   0  0  0  0  0  0  0  0  0  0  0  0
   -0.3799    0.0470   -0.4289 C   0  0  0  0  0  0  0  0  0  0  0  0
   -1.6913   -0.3276   -0.4246 C   0  0  0  0  0  0  0  0  0  0  0  0
   -2.6500    0.5578   -0.6173 N   0  0  0  0  0  0  0  0  0  0  0  0
    8.0662   -0.8070   -0.8976 C   0  0  0  0  0  0  0  0  0  0  0  0
    9.0947   -0.2228    0.0178 C   0  0  0  0  0  0  0  0  0  0  0  0
    9.8689    2.8709    0.8491 H   0  0  0  0  0  0  0  0  0  0  0  0
   10.8426    1.3903    0.7005 H   0  0  0  0  0  0  0  0  0  0  0  0
    9.6112    1.4828    2.0424 H   0  0  0  0  0  0  0  0  0  0  0  0
    7.4217    2.5941    0.6491 H   0  0  0  0  0  0  0  0  0  0  0  0
    7.4575    1.1074    1.7181 H   0  0  0  0  0  0  0  0  0  0  0  0
    5.5449    0.8359    0.5314 H   0  0  0  0  0  0  0  0  0  0  0  0
    6.2210    1.4460   -1.0418 H   0  0  0  0  0  0  0  0  0  0  0  0
    6.3628   -1.3745    1.2584 H   0  0  0  0  0  0  0  0  0  0  0  0
    6.4427   -2.5476   -0.1118 H   0  0  0  0  0  0  0  0  0  0  0  0
    4.6168   -0.2388   -1.7263 H   0  0  0  0  0  0  0  0  0  0  0  0
    2.1459   -0.0624   -1.8663 H   0  0  0  0  0  0  0  0  0  0  0  0
    1.7735   -2.3778    1.6426 H   0  0  0  0  0  0  0  0  0  0  0  0
    4.2827   -2.5602    1.7879 H   0  0  0  0  0  0  0  0  0  0  0  0
   -0.3083   -3.1586    0.1200 H   0  0  0  0  0  0  0  0  0  0  0  0
   -3.2653   -2.7882   -1.1449 H   0  0  0  0  0  0  0  0  0  0  0  0
   -2.9988   -3.2227    0.5718 H   0  0  0  0  0  0  0  0  0  0  0  0
   -4.6850   -1.0247   -0.5796 H   0  0  0  0  0  0  0  0  0  0  0  0
   -3.9677   -0.8227    1.1256 H   0  0  0  0  0  0  0  0  0  0  0  0
   -5.8079   -3.0227    0.1029 H   0  0  0  0  0  0  0  0  0  0  0  0
   -4.9179   -3.0075    1.6532 H   0  0  0  0  0  0  0  0  0  0  0  0
   -7.1232   -2.0716    2.0946 H   0  0  0  0  0  0  0  0  0  0  0  0
   -5.3825   -0.9043    2.9662 H   0  0  0  0  0  0  0  0  0  0  0  0
   -8.2132   -1.3550    0.2280 H   0  0  0  0  0  0  0  0  0  0  0  0
   -6.7186   -0.9404   -0.6363 H   0  0  0  0  0  0  0  0  0  0  0  0
   -8.4561    0.7161    1.2667 H   0  0  0  0  0  0  0  0  0  0  0  0
   -6.7372    1.1202    1.2134 H   0  0  0  0  0  0  0  0  0  0  0  0
   -8.1315    2.4470   -0.2511 H   0  0  0  0  0  0  0  0  0  0  0  0
   -8.6788    1.0216   -1.1735 H   0  0  0  0  0  0  0  0  0  0  0  0
   -5.9044    0.8135   -1.5103 H   0  0  0  0  0  0  0  0  0  0  0  0
   -7.0225    1.6987   -2.5574 H   0  0  0  0  0  0  0  0  0  0  0  0
   -5.4650    3.3205   -2.1963 H   0  0  0  0  0  0  0  0  0  0  0  0
   -6.4943    3.6960   -0.7610 H   0  0  0  0  0  0  0  0  0  0  0  0
   -4.7197    3.2923    0.5697 H   0  0  0  0  0  0  0  0  0  0  0  0
   -4.6923    1.5959    0.0605 H   0  0  0  0  0  0  0  0  0  0  0  0
   -3.2122    3.5876   -1.6800 H   0  0  0  0  0  0  0  0  0  0  0  0
    1.0038    1.6273   -0.6313 H   0  0  0  0  0  0  0  0  0  0  0  0
    8.2988   -0.4585   -1.9284 H   0  0  0  0  0  0  0  0  0  0  0  0
    8.1641   -1.9232   -0.8847 H   0  0  0  0  0  0  0  0  0  0  0  0
   10.0884   -0.3357   -0.4657 H   0  0  0  0  0  0  0  0  0  0  0  0
    9.1470   -0.6798    1.0020 H   0  0  0  0  0  0  0  0  0  0  0  0
  1  2  1  0
  2  3  1  0
  3  4  1  0
  4  5  1  0
  5  6  1  0
  6  7  1  0
  7  8  2  0
  8  9  1  0
  9 10  2  0
 10 11  1  0
 11 12  2  0
 10 13  1  0
 13 14  2  0
 14 15  1  0
 15 16  1  0
 16 17  1  0
 17 18  1  0
 18 19  1  0
 19 20  1  0
 19 21  1  0
 21 22  1  0
 22 23  1  0
 23 24  1  0
 24 25  1  0
 25 26  1  0
 26 27  1  0
 27 28  1  0
 28 29  2  0
 29 30  1  0
 30 31  2  0
 31 32  1  0
 32 33  2  0
  5 34  1  0
 34 35  1  0
 35  2  1  0
 12  7  1  0
 31 13  1  0
 32 15  1  0
 33 28  1  0
  1 36  1  0
  1 37  1  0
  1 38  1  0
  3 39  1  0
  3 40  1  0
  4 41  1  0
  4 42  1  0
  6 43  1  0
  6 44  1  0
  8 45  1  0
  9 46  1  0
 11 47  1  0
 12 48  1  0
 14 49  1  0
 16 50  1  0
 16 51  1  0
 17 52  1  0
 17 53  1  0
 18 54  1  0
 18 55  1  0
 19 56  1  0
 20 57  1  0
 21 58  1  0
 21 59  1  0
 22 60  1  0
 22 61  1  0
 23 62  1  0
 23 63  1  0
 24 64  1  0
 24 65  1  0
 25 66  1  0
 25 67  1  0
 26 68  1  0
 26 69  1  0
 27 70  1  0
 30 71  1  0
 34 72  1  0
 34 73  1  0
 35 74  1  0
 35 75  1  0
M  END
$$$$
[H]O[C@]1([H])C([H])([H])C([H])([H])[C@]([H])(C([H])([H])n2nc(-c3c([H])nc(N4C([H])([H])C([H])([H])N([H])C([H])([H])C4([H])[H])c([H])c3[H])c3c([H])nc(N([H])C([H])([H])C([H])([H])C([H])([H])C([H])([H])[H])nc32)C([H])([H])C1([H])[H]
     RDKit          3D

 70 74  0  0  0  0  0  0  0  0999 V2000
   -6.8349   -5.6317   -0.2807 C   0  0  0  0  0  0  0  0  0  0  0  0
   -5.5270   -4.8716   -0.4008 C   0  0  0  0  0  0  0  0  0  0  0  0
   -4.6747   -5.2528    0.7800 C   0  0  0  0  0  0  0  0  0  0  0  0
   -3.3508   -4.5416    0.7416 C   0  0  0  0  0  0  0  0  0  0  0  0
   -3.5098   -3.1120    0.7688 N   0  0  0  0  0  0  0  0  0  0  0  0
   -2.3673   -2.2735    0.7308 C   0  0  0  0  0  0  0  0  0  0  0  0
   -1.1277   -2.7852    0.6693 N   0  0  0  0  0  0  0  0  0  0  0  0
   -0.0289   -1.9990    0.6312 C   0  0  0  0  0  0  0  0  0  0  0  0
   -0.1401   -0.6245    0.6545 C   0  0  0  0  0  0  0  0  0  0  0  0
    0.7160    0.4509    0.6295 C   0  0  0  0  0  0  0  0  0  0  0  0
   -0.0492    1.5485    0.6769 N   0  0  0  0  0  0  0  0  0  0  0  0
   -1.3360    1.2660    0.7307 N   0  0  0  0  0  0  0  0  0  0  0  0
   -2.4225    2.1919    0.7908 C   0  0  0  0  0  0  0  0  0  0  0  0
   -2.9657    2.6188   -0.5465 C   0  0  2  0  0  0  0  0  0  0  0  0
   -1.9215    3.2992   -1.4113 C   0  0  0  0  0  0  0  0  0  0  0  0
   -1.7597    4.7647   -0.9930 C   0  0  0  0  0  0  0  0  0  0  0  0
   -2.9533    5.4988   -1.5091 C   0  0  2  0  0  0  0  0  0  0  0  0
   -3.0587    6.6990   -0.7713 O   0  0  0  0  0  0  0  0  0  0  0  0
   -4.1750    4.6567   -1.3584 C   0  0  0  0  0  0  0  0  0  0  0  0
   -4.0816    3.6125   -0.2687 C   0  0  0  0  0  0  0  0  0  0  0  0
   -1.4214   -0.0882    0.7181 C   0  0  0  0  0  0  0  0  0  0  0  0
   -2.4736   -0.9351    0.7532 N   0  0  0  0  0  0  0  0  0  0  0  0
    2.1685    0.3449    0.5584 C   0  0  0  0  0  0  0  0  0  0  0  0
    2.9161    1.1139   -0.3225 C   0  0  0  0  0  0  0  0  0  0  0  0
    4.3022    1.0174   -0.3867 C   0  0  0  0  0  0  0  0  0  0  0  0
    4.9375    0.1302    0.4529 C   0  0  0  0  0  0  0  0  0  0  0  0
    4.2215   -0.6172    1.3079 N   0  0  0  0  0  0  0  0  0  0  0  0
    2.8828   -0.5164    1.3621 C   0  0  0  0  0  0  0  0  0  0  0  0
    6.3339    0.0105    0.4093 N   0  0  0  0  0  0  0  0  0  0  0  0
    7.0970    0.7788   -0.5370 C   0  0  0  0  0  0  0  0  0  0  0  0
    8.4687    0.1714   -0.7033 C   0  0  0  0  0  0  0  0  0  0  0  0
    8.2922   -1.2687   -0.7228 N   0  0  0  0  0  0  0  0  0  0  0  0
    7.9832   -1.7636    0.6134 C   0  0  0  0  0  0  0  0  0  0  0  0
    6.9951   -0.8891    1.3264 C   0  0  0  0  0  0  0  0  0  0  0  0
   -7.5651   -5.2017   -1.0041 H   0  0  0  0  0  0  0  0  0  0  0  0
   -7.1828   -5.5430    0.7659 H   0  0  0  0  0  0  0  0  0  0  0  0
   -6.6407   -6.6983   -0.4923 H   0  0  0  0  0  0  0  0  0  0  0  0
   -5.7216   -3.7729   -0.3811 H   0  0  0  0  0  0  0  0  0  0  0  0
   -5.0048   -5.1215   -1.3423 H   0  0  0  0  0  0  0  0  0  0  0  0
   -4.4850   -6.3481    0.7287 H   0  0  0  0  0  0  0  0  0  0  0  0
   -5.1851   -4.9957    1.7259 H   0  0  0  0  0  0  0  0  0  0  0  0
   -2.7397   -4.8953   -0.1257 H   0  0  0  0  0  0  0  0  0  0  0  0
   -2.7846   -4.8890    1.6486 H   0  0  0  0  0  0  0  0  0  0  0  0
   -4.4603   -2.7121    0.8168 H   0  0  0  0  0  0  0  0  0  0  0  0
    0.9676   -2.4147    0.5792 H   0  0  0  0  0  0  0  0  0  0  0  0
   -2.2067    3.1057    1.3774 H   0  0  0  0  0  0  0  0  0  0  0  0
   -3.2724    1.6861    1.3228 H   0  0  0  0  0  0  0  0  0  0  0  0
   -3.4116    1.7807   -1.1175 H   0  0  0  0  0  0  0  0  0  0  0  0
   -2.2745    3.3235   -2.4553 H   0  0  0  0  0  0  0  0  0  0  0  0
   -0.9346    2.8450   -1.3761 H   0  0  0  0  0  0  0  0  0  0  0  0
   -0.8102    5.1170   -1.4328 H   0  0  0  0  0  0  0  0  0  0  0  0
   -1.7460    4.7555    0.1237 H   0  0  0  0  0  0  0  0  0  0  0  0
   -2.8007    5.7471   -2.5833 H   0  0  0  0  0  0  0  0  0  0  0  0
   -3.5701    6.5589    0.0650 H   0  0  0  0  0  0  0  0  0  0  0  0
   -5.0105    5.3439   -1.0426 H   0  0  0  0  0  0  0  0  0  0  0  0
   -4.5087    4.2204   -2.3156 H   0  0  0  0  0  0  0  0  0  0  0  0
   -3.9530    4.0613    0.7177 H   0  0  0  0  0  0  0  0  0  0  0  0
   -5.0308    3.0542   -0.2572 H   0  0  0  0  0  0  0  0  0  0  0  0
    2.3674    1.7937   -0.9587 H   0  0  0  0  0  0  0  0  0  0  0  0
    4.8655    1.6441   -1.0984 H   0  0  0  0  0  0  0  0  0  0  0  0
    2.3153   -1.1347    2.0711 H   0  0  0  0  0  0  0  0  0  0  0  0
    7.1894    1.8411   -0.2133 H   0  0  0  0  0  0  0  0  0  0  0  0
    6.6376    0.7697   -1.5650 H   0  0  0  0  0  0  0  0  0  0  0  0
    9.1626    0.4612    0.1117 H   0  0  0  0  0  0  0  0  0  0  0  0
    8.8823    0.4331   -1.7147 H   0  0  0  0  0  0  0  0  0  0  0  0
    7.5061   -1.4958   -1.3920 H   0  0  0  0  0  0  0  0  0  0  0  0
    8.9502   -1.6842    1.1925 H   0  0  0  0  0  0  0  0  0  0  0  0
    7.6321   -2.8148    0.5836 H   0  0  0  0  0  0  0  0  0  0  0  0
    7.4514   -0.2629    2.1232 H   0  0  0  0  0  0  0  0  0  0  0  0
    6.2371   -1.5616    1.8204 H   0  0  0  0  0  0  0  0  0  0  0  0
  1  2  1  0
  2  3  1  0
  3  4  1  0
  4  5  1  0
  5  6  1  0
  6  7  2  0
  7  8  1  0
  8  9  2  0
  9 10  1  0
 10 11  2  0
 11 12  1  0
 12 13  1  0
 13 14  1  0
 14 15  1  0
 15 16  1  0
 16 17  1  0
 17 18  1  0
 17 19  1  0
 19 20  1  0
 12 21  1  0
 21 22  2  0
 10 23  1  0
 23 24  2  0
 24 25  1  0
 25 26  2  0
 26 27  1  0
 27 28  2  0
 26 29  1  0
 29 30  1  0
 30 31  1  0
 31 32  1  0
 32 33  1  0
 33 34  1  0
 22  6  1  0
 28 23  1  0
 34 29  1  0
 21  9  1  0
 20 14  1  0
  1 35  1  0
  1 36  1  0
  1 37  1  0
  2 38  1  0
  2 39  1  0
  3 40  1  0
  3 41  1  0
  4 42  1  0
  4 43  1  0
  5 44  1  0
  8 45  1  0
 13 46  1  0
 13 47  1  0
 14 48  1  6
 15 49  1  0
 15 50  1  0
 16 51  1  0
 16 52  1  0
 17 53  1  6
 18 54  1  0
 19 55  1  0
 19 56  1  0
 20 57  1  0
 20 58  1  0
 24 59  1  0
 25 60  1  0
 28 61  1  0
 30 62  1  0
 30 63  1  0
 31 64  1  0
 31 65  1  0
 32 66  1  0
 33 67  1  0
 33 68  1  0
 34 69  1  0
 34 70  1  0
M  END
$$$$
[H]c1oc([H])c(-c2nn(C3([H])C([H])([H])C([H])([H])C([H])([H])C([H])([H])C3([H])[H])c3nc(N([H])C([H])([H])C([H])([H])C([H])([H])[H])nc([H])c23)c1[H]
     RDKit          3D

 47 50  0  0  0  0  0  0  0  0999 V2000
    4.3823   -2.5174    0.1865 C   0  0  0  0  0  0  0  0  0  0  0  0
    3.8797   -1.1306   -0.1669 C   0  0  0  0  0  0  0  0  0  0  0  0
    4.0920   -0.2673    1.0570 C   0  0  0  0  0  0  0  0  0  0  0  0
    3.6484    1.0806    0.8325 N   0  0  0  0  0  0  0  0  0  0  0  0
    2.3007    1.4520    0.5696 C   0  0  0  0  0  0  0  0  0  0  0  0
    2.0409    2.7670    0.3726 N   0  0  0  0  0  0  0  0  0  0  0  0
    0.7735    3.1969    0.1246 C   0  0  0  0  0  0  0  0  0  0  0  0
   -0.2780    2.3075    0.0674 C   0  0  0  0  0  0  0  0  0  0  0  0
   -1.6372    2.3708   -0.1499 C   0  0  0  0  0  0  0  0  0  0  0  0
   -2.1562    1.1337   -0.0822 N   0  0  0  0  0  0  0  0  0  0  0  0
   -1.1527    0.2801    0.1745 N   0  0  0  0  0  0  0  0  0  0  0  0
   -1.2929   -1.1485    0.3265 C   0  0  0  0  0  0  0  0  0  0  0  0
   -0.2324   -1.9441   -0.3816 C   0  0  0  0  0  0  0  0  0  0  0  0
   -0.7595   -3.2909   -0.8465 C   0  0  0  0  0  0  0  0  0  0  0  0
   -1.7966   -3.8372    0.1077 C   0  0  0  0  0  0  0  0  0  0  0  0
   -2.9830   -2.9082    0.2380 C   0  0  0  0  0  0  0  0  0  0  0  0
   -2.6247   -1.5480   -0.2731 C   0  0  0  0  0  0  0  0  0  0  0  0
   -0.0018    0.9770    0.2687 C   0  0  0  0  0  0  0  0  0  0  0  0
    1.2716    0.5904    0.5124 N   0  0  0  0  0  0  0  0  0  0  0  0
   -2.3830    3.6092   -0.4124 C   0  0  0  0  0  0  0  0  0  0  0  0
   -2.0904    4.6528   -1.2452 C   0  0  0  0  0  0  0  0  0  0  0  0
   -3.1165    5.5847   -1.1337 C   0  0  0  0  0  0  0  0  0  0  0  0
   -3.9733    5.1040   -0.2704 O   0  0  0  0  0  0  0  0  0  0  0  0
   -3.5837    3.9353    0.1857 C   0  0  0  0  0  0  0  0  0  0  0  0
    4.1748   -3.1940   -0.6599 H   0  0  0  0  0  0  0  0  0  0  0  0
    5.4544   -2.5054    0.4048 H   0  0  0  0  0  0  0  0  0  0  0  0
    3.8156   -2.8613    1.0602 H   0  0  0  0  0  0  0  0  0  0  0  0
    2.8239   -1.2228   -0.4350 H   0  0  0  0  0  0  0  0  0  0  0  0
    4.4574   -0.6989   -1.0276 H   0  0  0  0  0  0  0  0  0  0  0  0
    3.5020   -0.6925    1.8992 H   0  0  0  0  0  0  0  0  0  0  0  0
    5.1701   -0.2645    1.2559 H   0  0  0  0  0  0  0  0  0  0  0  0
    4.3781    1.8432    0.8664 H   0  0  0  0  0  0  0  0  0  0  0  0
    0.5449    4.2408   -0.0354 H   0  0  0  0  0  0  0  0  0  0  0  0
   -1.3456   -1.4205    1.4021 H   0  0  0  0  0  0  0  0  0  0  0  0
    0.0607   -1.3866   -1.2948 H   0  0  0  0  0  0  0  0  0  0  0  0
    0.6842   -2.0716    0.2314 H   0  0  0  0  0  0  0  0  0  0  0  0
    0.0927   -4.0134   -0.8289 H   0  0  0  0  0  0  0  0  0  0  0  0
   -1.1558   -3.2699   -1.8707 H   0  0  0  0  0  0  0  0  0  0  0  0
   -2.1680   -4.7861   -0.3245 H   0  0  0  0  0  0  0  0  0  0  0  0
   -1.3297   -4.0818    1.0834 H   0  0  0  0  0  0  0  0  0  0  0  0
   -3.2439   -2.8640    1.3175 H   0  0  0  0  0  0  0  0  0  0  0  0
   -3.8836   -3.3080   -0.2885 H   0  0  0  0  0  0  0  0  0  0  0  0
   -2.4986   -1.6378   -1.3886 H   0  0  0  0  0  0  0  0  0  0  0  0
   -3.4149   -0.8058   -0.0500 H   0  0  0  0  0  0  0  0  0  0  0  0
   -1.2154    4.7182   -1.8662 H   0  0  0  0  0  0  0  0  0  0  0  0
   -3.1354    6.5208   -1.6938 H   0  0  0  0  0  0  0  0  0  0  0  0
   -4.0952    3.3123    0.9065 H   0  0  0  0  0  0  0  0  0  0  0  0
  1  2  1  0
  2  3  1  0
  3  4  1  0
  4  5  1  0
  5  6  2  0
  6  7  1  0
  7  8  2  0
  8  9  1  0
  9 10  2  0
 10 11  1  0
 11 12  1  0
 12 13  1  0
 13 14  1  0
 14 15  1  0
 15 16  1  0
 16 17  1  0
 11 18  1  0
 18 19  2  0
  9 20  1  0
 20 21  1  0
 21 22  2  0
 22 23  1  0
 23 24  1  0
 19  5  1  0
 24 20  2  0
 18  8  1  0
 17 12  1  0
  1 25  1  0
  1 26  1  0
  1 27  1  0
  2 28  1  0
  2 29  1  0
  3 30  1  0
  3 31  1  0
  4 32  1  0
  7 33  1  0
 12 34  1  0
 13 35  1  0
 13 36  1  0
 14 37  1  0
 14 38  1  0
 15 39  1  0
 15 40  1  0
 16 41  1  0
 16 42  1  0
 17 43  1  0
 17 44  1  0
 21 45  1  0
 22 46  1  0
 24 47  1  0
M  END
$$$$
[H]OC1([H])C([H])([H])C([H])([H])C([H])(n2c([H])c(-c3c([H])c([H])c(S(=O)(=O)C4([H])C([H])([H])C([H])([H])C([H])([H])C4([H])[H])c([H])c3[H])c3c([H])nc(N([H])C([H])([H])C([H])([H])C([H])([H])C([H])([H])[H])nc32)C([H])([H])C1([H])[H]
     RDKit          3D

 71 75  0  0  0  0  0  0  0  0999 V2000
   -8.1005   -4.3720   -0.0217 C   0  0  0  0  0  0  0  0  0  0  0  0
   -6.8952   -3.4738   -0.3165 C   0  0  0  0  0  0  0  0  0  0  0  0
   -6.7938   -2.5026    0.8132 C   0  0  0  0  0  0  0  0  0  0  0  0
   -5.6152   -1.5879    0.5673 C   0  0  0  0  0  0  0  0  0  0  0  0
   -4.4219   -2.3668    0.4995 N   0  0  0  0  0  0  0  0  0  0  0  0
   -3.1278   -1.7700    0.2532 C   0  0  0  0  0  0  0  0  0  0  0  0
   -2.0192   -2.5261    0.1939 N   0  0  0  0  0  0  0  0  0  0  0  0
   -0.7879   -2.0074   -0.0350 C   0  0  0  0  0  0  0  0  0  0  0  0
   -0.6410   -0.6434   -0.2185 C   0  0  0  0  0  0  0  0  0  0  0  0
    0.4611    0.1486   -0.4634 C   0  0  0  0  0  0  0  0  0  0  0  0
   -0.0317    1.4364   -0.5518 C   0  0  0  0  0  0  0  0  0  0  0  0
   -1.3640    1.4013   -0.3669 N   0  0  0  0  0  0  0  0  0  0  0  0
   -2.2898    2.5164   -0.3755 C   0  0  0  0  0  0  0  0  0  0  0  0
   -1.7587    3.7264   -1.0628 C   0  0  0  0  0  0  0  0  0  0  0  0
   -2.5062    4.9869   -0.7306 C   0  0  0  0  0  0  0  0  0  0  0  0
   -3.8663    4.7588   -0.1634 C   0  0  0  0  0  0  0  0  0  0  0  0
   -4.3069    5.9871    0.3833 O   0  0  0  0  0  0  0  0  0  0  0  0
   -3.9263    3.7469    0.9305 C   0  0  0  0  0  0  0  0  0  0  0  0
   -2.6709    2.8977    1.0347 C   0  0  0  0  0  0  0  0  0  0  0  0
   -1.7826    0.1254   -0.1563 C   0  0  0  0  0  0  0  0  0  0  0  0
   -2.9838   -0.4451    0.0747 N   0  0  0  0  0  0  0  0  0  0  0  0
    1.8746   -0.2652   -0.6029 C   0  0  0  0  0  0  0  0  0  0  0  0
    2.6281    0.2309   -1.6335 C   0  0  0  0  0  0  0  0  0  0  0  0
    3.9345   -0.1489   -1.7627 C   0  0  0  0  0  0  0  0  0  0  0  0
    4.5492   -1.0292   -0.8856 C   0  0  0  0  0  0  0  0  0  0  0  0
    3.7785   -1.5135    0.1376 C   0  0  0  0  0  0  0  0  0  0  0  0
    2.4595   -1.1428    0.2852 C   0  0  0  0  0  0  0  0  0  0  0  0
    6.2260   -1.4653   -1.1257 S   0  0  0  0  0  0  0  0  0  0  0  0
    6.4407   -2.8592   -0.6703 O   0  0  0  0  0  0  0  0  0  0  0  0
    6.5960   -1.3958   -2.5906 O   0  0  0  0  0  0  0  0  0  0  0  0
    7.2636   -0.3136   -0.2741 C   0  0  0  0  0  0  0  0  0  0  0  0
    6.9964   -0.3761    1.1962 C   0  0  0  0  0  0  0  0  0  0  0  0
    7.9659   -1.4312    1.7023 C   0  0  0  0  0  0  0  0  0  0  0  0
    9.2237   -1.0476    0.9149 C   0  0  0  0  0  0  0  0  0  0  0  0
    8.7190   -0.7057   -0.4647 C   0  0  0  0  0  0  0  0  0  0  0  0
   -7.9357   -4.8972    0.9397 H   0  0  0  0  0  0  0  0  0  0  0  0
   -9.0194   -3.7822   -0.0422 H   0  0  0  0  0  0  0  0  0  0  0  0
   -8.1200   -5.1116   -0.8534 H   0  0  0  0  0  0  0  0  0  0  0  0
   -6.0153   -4.1207   -0.4239 H   0  0  0  0  0  0  0  0  0  0  0  0
   -7.1163   -2.9855   -1.2874 H   0  0  0  0  0  0  0  0  0  0  0  0
   -6.6520   -3.0966    1.7526 H   0  0  0  0  0  0  0  0  0  0  0  0
   -7.7053   -1.9157    0.9680 H   0  0  0  0  0  0  0  0  0  0  0  0
   -5.5058   -0.9178    1.4711 H   0  0  0  0  0  0  0  0  0  0  0  0
   -5.7457   -0.9726   -0.3317 H   0  0  0  0  0  0  0  0  0  0  0  0
   -4.4562   -3.3866    0.6289 H   0  0  0  0  0  0  0  0  0  0  0  0
    0.0964   -2.6211   -0.0818 H   0  0  0  0  0  0  0  0  0  0  0  0
    0.5902    2.3224   -0.7430 H   0  0  0  0  0  0  0  0  0  0  0  0
   -3.2297    2.1859   -0.8832 H   0  0  0  0  0  0  0  0  0  0  0  0
   -0.7093    3.8856   -0.7312 H   0  0  0  0  0  0  0  0  0  0  0  0
   -1.7054    3.5175   -2.1512 H   0  0  0  0  0  0  0  0  0  0  0  0
   -1.9254    5.6514   -0.0347 H   0  0  0  0  0  0  0  0  0  0  0  0
   -2.6138    5.5724   -1.6723 H   0  0  0  0  0  0  0  0  0  0  0  0
   -4.5907    4.5504   -1.0006 H   0  0  0  0  0  0  0  0  0  0  0  0
   -3.8562    6.0551    1.2842 H   0  0  0  0  0  0  0  0  0  0  0  0
   -4.7606    3.0230    0.7100 H   0  0  0  0  0  0  0  0  0  0  0  0
   -4.1252    4.1594    1.9289 H   0  0  0  0  0  0  0  0  0  0  0  0
   -1.8880    3.4574    1.5625 H   0  0  0  0  0  0  0  0  0  0  0  0
   -2.9616    1.9880    1.6264 H   0  0  0  0  0  0  0  0  0  0  0  0
    2.1944    0.9210   -2.3446 H   0  0  0  0  0  0  0  0  0  0  0  0
    4.5169    0.2620   -2.5959 H   0  0  0  0  0  0  0  0  0  0  0  0
    4.2461   -2.2109    0.8419 H   0  0  0  0  0  0  0  0  0  0  0  0
    1.8692   -1.5416    1.1081 H   0  0  0  0  0  0  0  0  0  0  0  0
    7.1204    0.7127   -0.6322 H   0  0  0  0  0  0  0  0  0  0  0  0
    5.9501   -0.6180    1.4058 H   0  0  0  0  0  0  0  0  0  0  0  0
    7.3133    0.5833    1.6904 H   0  0  0  0  0  0  0  0  0  0  0  0
    8.1444   -1.3304    2.7971 H   0  0  0  0  0  0  0  0  0  0  0  0
    7.6783   -2.4500    1.4324 H   0  0  0  0  0  0  0  0  0  0  0  0
    9.6389   -0.1477    1.4154 H   0  0  0  0  0  0  0  0  0  0  0  0
    9.9588   -1.8734    0.9185 H   0  0  0  0  0  0  0  0  0  0  0  0
    8.7896   -1.5933   -1.1582 H   0  0  0  0  0  0  0  0  0  0  0  0
    9.3033    0.1516   -0.8550 H   0  0  0  0  0  0  0  0  0  0  0  0
  1  2  1  0
  2  3  1  0
  3  4  1  0
  4  5  1  0
  5  6  1  0
  6  7  2  0
  7  8  1  0
  8  9  2  0
  9 10  1  0
 10 11  2  0
 11 12  1  0
 12 13  1  0
 13 14  1  0
 14 15  1  0
 15 16  1  0
 16 17  1  0
 16 18  1  0
 18 19  1  0
 12 20  1  0
 20 21  2  0
 10 22  1  0
 22 23  2  0
 23 24  1  0
 24 25  2  0
 25 26  1  0
 26 27  2  0
 25 28  1  0
 28 29  2  0
 28 30  2  0
 28 31  1  0
 31 32  1  0
 32 33  1  0
 33 34  1  0
 34 35  1  0
 21  6  1  0
 27 22  1  0
 35 31  1  0
 20  9  1  0
 19 13  1  0
  1 36  1  0
  1 37  1  0
  1 38  1  0
  2 39  1  0
  2 40  1  0
  3 41  1  0
  3 42  1  0
  4 43  1  0
  4 44  1  0
  5 45  1  0
  8 46  1  0
 11 47  1  0
 13 48  1  0
 14 49  1  0
 14 50  1  0
 15 51  1  0
 15 52  1  0
 16 53  1  0
 17 54  1  0
 18 55  1  0
 18 56  1  0
 19 57  1  0
 19 58  1  0
 23 59  1  0
 24 60  1  0
 26 61  1  0
 27 62  1  0
 31 63  1  0
 32 64  1  0
 32 65  1  0
 33 66  1  0
 33 67  1  0
 34 68  1  0
 34 69  1  0
 35 70  1  0
 35 71  1  0
M  END
$$$$
[H]O[C@]1([H])C([H])([H])C([H])([H])[C@@]([H])(N([H])c2nc(N([H])C([H])([H])C([H])([H])C([H])([H])C([H])([H])[H])nc([H])c2C(=O)N([H])C([H])([H])c2c([H])c(OC([H])([H])[H])c([H])c(OC([H])([H])[H])c2[H])C([H])([H])C1([H])[H]
     RDKit          3D

 68 70  0  0  0  0  0  0  0  0999 V2000
   -6.1982    4.7451    1.9969 C   0  0  0  0  0  0  0  0  0  0  0  0
   -4.9896    4.7940    1.1202 C   0  0  0  0  0  0  0  0  0  0  0  0
   -4.5573    3.4207    0.6478 C   0  0  0  0  0  0  0  0  0  0  0  0
   -4.2167    2.5092    1.7757 C   0  0  0  0  0  0  0  0  0  0  0  0
   -3.8111    1.2041    1.3414 N   0  0  0  0  0  0  0  0  0  0  0  0
   -2.6240    1.0004    0.5994 C   0  0  0  0  0  0  0  0  0  0  0  0
   -1.8099    2.0057    0.2658 N   0  0  0  0  0  0  0  0  0  0  0  0
   -0.6841    1.8928   -0.4237 C   0  0  0  0  0  0  0  0  0  0  0  0
   -0.2830    0.6331   -0.8545 C   0  0  0  0  0  0  0  0  0  0  0  0
    0.9532    0.5542   -1.5891 C   0  0  0  0  0  0  0  0  0  0  0  0
    1.4141   -0.5332   -1.9958 O   0  0  0  0  0  0  0  0  0  0  0  0
    1.7491    1.6867   -1.9143 N   0  0  0  0  0  0  0  0  0  0  0  0
    2.9948    1.5886   -2.6539 C   0  0  0  0  0  0  0  0  0  0  0  0
    4.1272    1.1114   -1.8342 C   0  0  0  0  0  0  0  0  0  0  0  0
    4.7388    1.9629   -0.9253 C   0  0  0  0  0  0  0  0  0  0  0  0
    5.7993    1.6087   -0.1261 C   0  0  0  0  0  0  0  0  0  0  0  0
    6.3767    2.5158    0.7757 O   0  0  0  0  0  0  0  0  0  0  0  0
    7.4638    2.0511    1.5515 C   0  0  0  0  0  0  0  0  0  0  0  0
    6.2787    0.3077   -0.2489 C   0  0  0  0  0  0  0  0  0  0  0  0
    5.7169   -0.5786   -1.1280 C   0  0  0  0  0  0  0  0  0  0  0  0
    6.1929   -1.8867   -1.2567 O   0  0  0  0  0  0  0  0  0  0  0  0
    7.2738   -2.3465   -0.4836 C   0  0  0  0  0  0  0  0  0  0  0  0
    4.6400   -0.1598   -1.9147 C   0  0  0  0  0  0  0  0  0  0  0  0
   -1.0997   -0.4234   -0.5276 C   0  0  0  0  0  0  0  0  0  0  0  0
   -0.8221   -1.7457   -0.9100 N   0  0  0  0  0  0  0  0  0  0  0  0
   -1.6731   -2.8548   -0.5620 C   0  0  1  0  0  0  0  0  0  0  0  0
   -1.8264   -3.1100    0.9079 C   0  0  0  0  0  0  0  0  0  0  0  0
   -2.2798   -4.5683    1.0265 C   0  0  0  0  0  0  0  0  0  0  0  0
   -3.5586   -4.8036    0.2747 C   0  0  2  0  0  0  0  0  0  0  0  0
   -3.6683   -6.2026    0.1003 O   0  0  0  0  0  0  0  0  0  0  0  0
   -3.6191   -4.1898   -1.0830 C   0  0  0  0  0  0  0  0  0  0  0  0
   -3.0668   -2.7740   -1.1398 C   0  0  0  0  0  0  0  0  0  0  0  0
   -2.2505   -0.2204    0.1907 N   0  0  0  0  0  0  0  0  0  0  0  0
   -6.8341    5.6266    1.7792 H   0  0  0  0  0  0  0  0  0  0  0  0
   -5.9693    4.7830    3.0836 H   0  0  0  0  0  0  0  0  0  0  0  0
   -6.7937    3.8301    1.7449 H   0  0  0  0  0  0  0  0  0  0  0  0
   -4.1557    5.3065    1.6205 H   0  0  0  0  0  0  0  0  0  0  0  0
   -5.2324    5.3900    0.2135 H   0  0  0  0  0  0  0  0  0  0  0  0
   -3.7514    3.5922   -0.0828 H   0  0  0  0  0  0  0  0  0  0  0  0
   -5.4028    2.9734    0.0498 H   0  0  0  0  0  0  0  0  0  0  0  0
   -4.9952    2.4795    2.5643 H   0  0  0  0  0  0  0  0  0  0  0  0
   -3.3092    2.9514    2.2893 H   0  0  0  0  0  0  0  0  0  0  0  0
   -4.4183    0.3974    1.5877 H   0  0  0  0  0  0  0  0  0  0  0  0
   -0.1467    2.8070   -0.6050 H   0  0  0  0  0  0  0  0  0  0  0  0
    1.4417    2.6248   -1.6204 H   0  0  0  0  0  0  0  0  0  0  0  0
    2.7983    0.8398   -3.4770 H   0  0  0  0  0  0  0  0  0  0  0  0
    3.2716    2.5138   -3.1501 H   0  0  0  0  0  0  0  0  0  0  0  0
    4.3578    2.9753   -0.8367 H   0  0  0  0  0  0  0  0  0  0  0  0
    8.3087    1.6964    0.9164 H   0  0  0  0  0  0  0  0  0  0  0  0
    7.0955    1.1972    2.1452 H   0  0  0  0  0  0  0  0  0  0  0  0
    7.8387    2.8795    2.1851 H   0  0  0  0  0  0  0  0  0  0  0  0
    7.1173    0.0295    0.3833 H   0  0  0  0  0  0  0  0  0  0  0  0
    7.3268   -3.4569   -0.5298 H   0  0  0  0  0  0  0  0  0  0  0  0
    7.1532   -1.9967    0.5525 H   0  0  0  0  0  0  0  0  0  0  0  0
    8.2481   -1.9832   -0.8604 H   0  0  0  0  0  0  0  0  0  0  0  0
    4.2003   -0.8665   -2.6145 H   0  0  0  0  0  0  0  0  0  0  0  0
    0.0112   -1.9810   -1.4651 H   0  0  0  0  0  0  0  0  0  0  0  0
   -1.2410   -3.8009   -0.9876 H   0  0  0  0  0  0  0  0  0  0  0  0
   -2.6671   -2.4626    1.2793 H   0  0  0  0  0  0  0  0  0  0  0  0
   -0.9094   -3.0134    1.4925 H   0  0  0  0  0  0  0  0  0  0  0  0
   -2.4591   -4.7861    2.0879 H   0  0  0  0  0  0  0  0  0  0  0  0
   -1.4878   -5.1802    0.5666 H   0  0  0  0  0  0  0  0  0  0  0  0
   -4.4102   -4.5145    0.9272 H   0  0  0  0  0  0  0  0  0  0  0  0
   -3.0796   -6.4199   -0.6549 H   0  0  0  0  0  0  0  0  0  0  0  0
   -3.0488   -4.8112   -1.7887 H   0  0  0  0  0  0  0  0  0  0  0  0
   -4.6910   -4.1847   -1.3992 H   0  0  0  0  0  0  0  0  0  0  0  0
   -3.7522   -2.1793   -0.4848 H   0  0  0  0  0  0  0  0  0  0  0  0
   -3.0953   -2.4513   -2.1835 H   0  0  0  0  0  0  0  0  0  0  0  0
  1  2  1  0
  2  3  1  0
  3  4  1  0
  4  5  1  0
  5  6  1  0
  6  7  2  0
  7  8  1  0
  8  9  2  0
  9 10  1  0
 10 11  2  0
 10 12  1  0
 12 13  1  0
 13 14  1  0
 14 15  2  0
 15 16  1  0
 16 17  1  0
 17 18  1  0
 16 19  2  0
 19 20  1  0
 20 21  1  0
 21 22  1  0
 20 23  2  0
  9 24  1  0
 24 25  1  0
 25 26  1  0
 26 27  1  0
 27 28  1  0
 28 29  1  0
 29 30  1  0
 29 31  1  0
 31 32  1  0
 24 33  2  0
 33  6  1  0
 23 14  1  0
 32 26  1  0
  1 34  1  0
  1 35  1  0
  1 36  1  0
  2 37  1  0
  2 38  1  0
  3 39  1  0
  3 40  1  0
  4 41  1  0
  4 42  1  0
  5 43  1  0
  8 44  1  0
 12 45  1  0
 13 46  1  0
 13 47  1  0
 15 48  1  0
 18 49  1  0
 18 50  1  0
 18 51  1  0
 19 52  1  0
 22 53  1  0
 22 54  1  0
 22 55  1  0
 23 56  1  0
 25 57  1  0
 26 58  1  6
 27 59  1  0
 27 60  1  0
 28 61  1  0
 28 62  1  0
 29 63  1  1
 30 64  1  0
 31 65  1  0
 31 66  1  0
 32 67  1  0
 32 68  1  0
M  END
$$$$
[H]c1sc([H])c(-c2nn(C([H])([H])C3([H])C([H])([H])C([H])([H])C([H])(N([H])[H])C([H])([H])C3([H])[H])c3nc(N([H])C([H])([H])[H])nc([H])c23)c1[H]
     RDKit          3D

 46 49  0  0  0  0  0  0  0  0999 V2000
   -4.0725   -4.5284   -0.8471 C   0  0  0  0  0  0  0  0  0  0  0  0
   -2.8432   -3.9388   -0.3298 N   0  0  0  0  0  0  0  0  0  0  0  0
   -2.7254   -2.5272   -0.2134 C   0  0  0  0  0  0  0  0  0  0  0  0
   -3.7372   -1.7030   -0.5744 N   0  0  0  0  0  0  0  0  0  0  0  0
   -3.6294   -0.3686   -0.4658 C   0  0  0  0  0  0  0  0  0  0  0  0
   -2.4649    0.1589    0.0227 C   0  0  0  0  0  0  0  0  0  0  0  0
   -2.0590    1.4569    0.2474 C   0  0  0  0  0  0  0  0  0  0  0  0
   -0.8247    1.3794    0.7333 N   0  0  0  0  0  0  0  0  0  0  0  0
   -0.4363    0.1089    0.8251 N   0  0  0  0  0  0  0  0  0  0  0  0
    0.8205   -0.3988    1.2988 C   0  0  0  0  0  0  0  0  0  0  0  0
    1.8341   -0.5298    0.1508 C   0  0  0  0  0  0  0  0  0  0  0  0
    2.0797    0.7730   -0.4753 C   0  0  0  0  0  0  0  0  0  0  0  0
    3.4398    1.1057   -0.9226 C   0  0  0  0  0  0  0  0  0  0  0  0
    4.5274    0.1746   -0.4944 C   0  0  0  0  0  0  0  0  0  0  0  0
    5.7886    0.9000   -0.3790 N   0  0  0  0  0  0  0  0  0  0  0  0
    4.1878   -0.3176    0.9150 C   0  0  0  0  0  0  0  0  0  0  0  0
    3.0161   -1.2508    0.7005 C   0  0  0  0  0  0  0  0  0  0  0  0
   -1.4387   -0.6772    0.3889 C   0  0  0  0  0  0  0  0  0  0  0  0
   -1.5771   -2.0235    0.2675 N   0  0  0  0  0  0  0  0  0  0  0  0
   -2.8670    2.6874   -0.0142 C   0  0  0  0  0  0  0  0  0  0  0  0
   -2.3120    3.7537   -0.6382 C   0  0  0  0  0  0  0  0  0  0  0  0
   -3.1161    4.8431   -0.8396 C   0  0  0  0  0  0  0  0  0  0  0  0
   -4.5998    4.3619   -0.1657 S   0  0  0  0  0  0  0  0  0  0  0  0
   -4.1781    2.7976    0.3566 C   0  0  0  0  0  0  0  0  0  0  0  0
   -3.8997   -5.4700   -1.3863 H   0  0  0  0  0  0  0  0  0  0  0  0
   -4.7082   -4.7571    0.0312 H   0  0  0  0  0  0  0  0  0  0  0  0
   -4.6339   -3.8026   -1.4698 H   0  0  0  0  0  0  0  0  0  0  0  0
   -2.0579   -4.5533   -0.0483 H   0  0  0  0  0  0  0  0  0  0  0  0
   -4.4198    0.3146   -0.7469 H   0  0  0  0  0  0  0  0  0  0  0  0
    0.7389   -1.3383    1.8714 H   0  0  0  0  0  0  0  0  0  0  0  0
    1.2449    0.3630    1.9940 H   0  0  0  0  0  0  0  0  0  0  0  0
    1.3287   -1.2346   -0.5746 H   0  0  0  0  0  0  0  0  0  0  0  0
    1.7215    1.5812    0.2302 H   0  0  0  0  0  0  0  0  0  0  0  0
    1.3827    0.8796   -1.3601 H   0  0  0  0  0  0  0  0  0  0  0  0
    3.7518    2.1372   -0.5798 H   0  0  0  0  0  0  0  0  0  0  0  0
    3.5126    1.1768   -2.0487 H   0  0  0  0  0  0  0  0  0  0  0  0
    4.6896   -0.6640   -1.1796 H   0  0  0  0  0  0  0  0  0  0  0  0
    5.7433    1.4238    0.5345 H   0  0  0  0  0  0  0  0  0  0  0  0
    6.5963    0.2412   -0.3176 H   0  0  0  0  0  0  0  0  0  0  0  0
    5.0254   -0.8729    1.3614 H   0  0  0  0  0  0  0  0  0  0  0  0
    3.8646    0.5176    1.5334 H   0  0  0  0  0  0  0  0  0  0  0  0
    2.8271   -1.7764    1.6557 H   0  0  0  0  0  0  0  0  0  0  0  0
    3.3633   -2.0325   -0.0195 H   0  0  0  0  0  0  0  0  0  0  0  0
   -1.2484    3.8007   -0.9963 H   0  0  0  0  0  0  0  0  0  0  0  0
   -2.8388    5.7948   -1.3271 H   0  0  0  0  0  0  0  0  0  0  0  0
   -4.7964    2.0338    0.8748 H   0  0  0  0  0  0  0  0  0  0  0  0
  1  2  1  0
  2  3  1  0
  3  4  2  0
  4  5  1  0
  5  6  2  0
  6  7  1  0
  7  8  2  0
  8  9  1  0
  9 10  1  0
 10 11  1  0
 11 12  1  0
 12 13  1  0
 13 14  1  0
 14 15  1  0
 14 16  1  0
 16 17  1  0
  9 18  1  0
 18 19  2  0
  7 20  1  0
 20 21  1  0
 21 22  2  0
 22 23  1  0
 23 24  1  0
 19  3  1  0
 24 20  2  0
 18  6  1  0
 17 11  1  0
  1 25  1  0
  1 26  1  0
  1 27  1  0
  2 28  1  0
  5 29  1  0
 10 30  1  0
 10 31  1  0
 11 32  1  0
 12 33  1  0
 12 34  1  0
 13 35  1  0
 13 36  1  0
 14 37  1  0
 15 38  1  0
 15 39  1  0
 16 40  1  0
 16 41  1  0
 17 42  1  0
 17 43  1  0
 21 44  1  0
 22 45  1  0
 24 46  1  0
M  END
$$$$
[H]O[C@]1([H])C([H])([H])C([H])([H])[C@@]([H])(N([H])c2nc(N([H])C([H])([H])C([H])([H])C([H])([H])C([H])([H])[H])nc([H])c2C(=O)N([H])C([H])([H])c2c([H])c([H])c(N3C([H])([H])C([H])([H])C([H])([H])C3([H])[H])c([H])c2[H])C([H])([H])C1([H])[H]
     RDKit          3D

 72 75  0  0  0  0  0  0  0  0999 V2000
   -8.1645    3.6290    1.1862 C   0  0  0  0  0  0  0  0  0  0  0  0
   -6.9288    3.1235    0.4722 C   0  0  0  0  0  0  0  0  0  0  0  0
   -5.7760    4.0102    0.8844 C   0  0  0  0  0  0  0  0  0  0  0  0
   -4.5452    3.5300    0.1926 C   0  0  0  0  0  0  0  0  0  0  0  0
   -4.1762    2.1690    0.5073 N   0  0  0  0  0  0  0  0  0  0  0  0
   -3.0111    1.6468   -0.1163 C   0  0  0  0  0  0  0  0  0  0  0  0
   -2.2627    2.3675   -0.9688 N   0  0  0  0  0  0  0  0  0  0  0  0
   -1.1582    1.8752   -1.5568 C   0  0  0  0  0  0  0  0  0  0  0  0
   -0.7522    0.5788   -1.2924 C   0  0  0  0  0  0  0  0  0  0  0  0
    0.4292    0.0626   -1.9275 C   0  0  0  0  0  0  0  0  0  0  0  0
    0.8231   -1.1072   -1.7061 O   0  0  0  0  0  0  0  0  0  0  0  0
    1.1748    0.8723   -2.8221 N   0  0  0  0  0  0  0  0  0  0  0  0
    2.3691    0.2978   -3.4401 C   0  0  0  0  0  0  0  0  0  0  0  0
    3.5202    0.2650   -2.4974 C   0  0  0  0  0  0  0  0  0  0  0  0
    4.1683    1.4363   -2.1191 C   0  0  0  0  0  0  0  0  0  0  0  0
    5.2412    1.4399   -1.2569 C   0  0  0  0  0  0  0  0  0  0  0  0
    5.7407    0.2639   -0.7117 C   0  0  0  0  0  0  0  0  0  0  0  0
    5.1044   -0.8975   -1.0816 C   0  0  0  0  0  0  0  0  0  0  0  0
    4.0127   -0.9021   -1.9591 C   0  0  0  0  0  0  0  0  0  0  0  0
    6.8484    0.2708    0.1767 N   0  0  0  0  0  0  0  0  0  0  0  0
    7.4412   -0.8863    0.7961 C   0  0  0  0  0  0  0  0  0  0  0  0
    8.9087   -0.5889    0.8056 C   0  0  0  0  0  0  0  0  0  0  0  0
    8.9911    0.8908    0.9608 C   0  0  0  0  0  0  0  0  0  0  0  0
    7.6088    1.4097    0.6469 C   0  0  0  0  0  0  0  0  0  0  0  0
   -1.5011   -0.1779   -0.4240 C   0  0  0  0  0  0  0  0  0  0  0  0
   -1.2517   -1.4870   -0.0318 N   0  0  0  0  0  0  0  0  0  0  0  0
   -2.1345   -2.2001    0.8993 C   0  0  1  0  0  0  0  0  0  0  0  0
   -3.5128   -2.3594    0.3749 C   0  0  0  0  0  0  0  0  0  0  0  0
   -3.7931   -3.8263    0.1011 C   0  0  0  0  0  0  0  0  0  0  0  0
   -3.7293   -4.6359    1.3892 C   0  0  2  0  0  0  0  0  0  0  0  0
   -4.9509   -4.5133    2.0272 O   0  0  0  0  0  0  0  0  0  0  0  0
   -2.5642   -4.1841    2.2461 C   0  0  0  0  0  0  0  0  0  0  0  0
   -1.5724   -3.5375    1.3068 C   0  0  0  0  0  0  0  0  0  0  0  0
   -2.6091    0.4074    0.1263 N   0  0  0  0  0  0  0  0  0  0  0  0
   -8.4589    4.5772    0.6907 H   0  0  0  0  0  0  0  0  0  0  0  0
   -8.9426    2.8532    1.0567 H   0  0  0  0  0  0  0  0  0  0  0  0
   -7.8810    3.8047    2.2389 H   0  0  0  0  0  0  0  0  0  0  0  0
   -6.6793    2.0905    0.7445 H   0  0  0  0  0  0  0  0  0  0  0  0
   -7.0137    3.2072   -0.6339 H   0  0  0  0  0  0  0  0  0  0  0  0
   -5.5767    3.9381    1.9855 H   0  0  0  0  0  0  0  0  0  0  0  0
   -5.9465    5.0729    0.6073 H   0  0  0  0  0  0  0  0  0  0  0  0
   -3.7160    4.2399    0.4883 H   0  0  0  0  0  0  0  0  0  0  0  0
   -4.5986    3.6211   -0.9136 H   0  0  0  0  0  0  0  0  0  0  0  0
   -4.7561    1.6271    1.1636 H   0  0  0  0  0  0  0  0  0  0  0  0
   -0.6088    2.4890   -2.2193 H   0  0  0  0  0  0  0  0  0  0  0  0
    0.9081    1.8370   -3.0488 H   0  0  0  0  0  0  0  0  0  0  0  0
    2.6939    0.8700   -4.3178 H   0  0  0  0  0  0  0  0  0  0  0  0
    2.0895   -0.7185   -3.7801 H   0  0  0  0  0  0  0  0  0  0  0  0
    3.7749    2.3605   -2.5481 H   0  0  0  0  0  0  0  0  0  0  0  0
    5.7394    2.3593   -0.9686 H   0  0  0  0  0  0  0  0  0  0  0  0
    5.4525   -1.8482   -0.6841 H   0  0  0  0  0  0  0  0  0  0  0  0
    3.5393   -1.8472   -2.2314 H   0  0  0  0  0  0  0  0  0  0  0  0
    7.0506   -0.9566    1.8339 H   0  0  0  0  0  0  0  0  0  0  0  0
    7.2173   -1.8449    0.2910 H   0  0  0  0  0  0  0  0  0  0  0  0
    9.3621   -1.1032    1.6800 H   0  0  0  0  0  0  0  0  0  0  0  0
    9.3777   -0.9219   -0.1440 H   0  0  0  0  0  0  0  0  0  0  0  0
    9.2677    1.1559    1.9972 H   0  0  0  0  0  0  0  0  0  0  0  0
    9.7411    1.3281    0.2404 H   0  0  0  0  0  0  0  0  0  0  0  0
    7.1489    1.9172    1.5114 H   0  0  0  0  0  0  0  0  0  0  0  0
    7.6933    2.1751   -0.1739 H   0  0  0  0  0  0  0  0  0  0  0  0
   -0.4580   -2.0549   -0.3434 H   0  0  0  0  0  0  0  0  0  0  0  0
   -2.1797   -1.5354    1.8099 H   0  0  0  0  0  0  0  0  0  0  0  0
   -3.6772   -1.8340   -0.5911 H   0  0  0  0  0  0  0  0  0  0  0  0
   -4.2647   -2.0003    1.1153 H   0  0  0  0  0  0  0  0  0  0  0  0
   -3.1717   -4.2414   -0.7002 H   0  0  0  0  0  0  0  0  0  0  0  0
   -4.8505   -3.8870   -0.2499 H   0  0  0  0  0  0  0  0  0  0  0  0
   -3.5360   -5.6838    1.0978 H   0  0  0  0  0  0  0  0  0  0  0  0
   -5.6781   -4.2443    1.3792 H   0  0  0  0  0  0  0  0  0  0  0  0
   -2.9277   -3.4051    2.9438 H   0  0  0  0  0  0  0  0  0  0  0  0
   -2.1001   -5.0328    2.7902 H   0  0  0  0  0  0  0  0  0  0  0  0
   -0.5671   -3.4342    1.7799 H   0  0  0  0  0  0  0  0  0  0  0  0
   -1.4545   -4.1735    0.3927 H   0  0  0  0  0  0  0  0  0  0  0  0
  1  2  1  0
  2  3  1  0
  3  4  1  0
  4  5  1  0
  5  6  1  0
  6  7  2  0
  7  8  1  0
  8  9  2  0
  9 10  1  0
 10 11  2  0
 10 12  1  0
 12 13  1  0
 13 14  1  0
 14 15  2  0
 15 16  1  0
 16 17  2  0
 17 18  1  0
 18 19  2  0
 17 20  1  0
 20 21  1  0
 21 22  1  0
 22 23  1  0
 23 24  1  0
  9 25  1  0
 25 26  1  0
 26 27  1  0
 27 28  1  0
 28 29  1  0
 29 30  1  0
 30 31  1  0
 30 32  1  0
 32 33  1  0
 25 34  2  0
 34  6  1  0
 19 14  1  0
 24 20  1  0
 33 27  1  0
  1 35  1  0
  1 36  1  0
  1 37  1  0
  2 38  1  0
  2 39  1  0
  3 40  1  0
  3 41  1  0
  4 42  1  0
  4 43  1  0
  5 44  1  0
  8 45  1  0
 12 46  1  0
 13 47  1  0
 13 48  1  0
 15 49  1  0
 16 50  1  0
 18 51  1  0
 19 52  1  0
 21 53  1  0
 21 54  1  0
 22 55  1  0
 22 56  1  0
 23 57  1  0
 23 58  1  0
 24 59  1  0
 24 60  1  0
 26 61  1  0
 27 62  1  1
 28 63  1  0
 28 64  1  0
 29 65  1  0
 29 66  1  0
 30 67  1  6
 31 68  1  0
 32 69  1  0
 32 70  1  0
 33 71  1  0
 33 72  1  0
M  END
$$$$
[H]c1nc(N([H])[H])c(C(=O)N([H])[C@@]2([H])C([H])([H])C([H])([H])C([H])([H])[C@]2([H])OC([H])([H])c2c([H])c([H])c(-c3c([H])c([H])c(C(=O)N([H])[H])c([H])c3[H])c([H])c2[H])c([H])c1-c1c([H])nn(C([H])([H])[H])c1[H]
     RDKit          3D

 68 72  0  0  0  0  0  0  0  0999 V2000
    7.2651    4.5033    2.4435 C   0  0  0  0  0  0  0  0  0  0  0  0
    6.3960    3.6577    1.6633 N   0  0  0  0  0  0  0  0  0  0  0  0
    6.7990    2.6027    0.9297 C   0  0  0  0  0  0  0  0  0  0  0  0
    5.7045    2.0334    0.3224 C   0  0  0  0  0  0  0  0  0  0  0  0
    4.6207    2.7711    0.7061 C   0  0  0  0  0  0  0  0  0  0  0  0
    5.0827    3.7292    1.5057 N   0  0  0  0  0  0  0  0  0  0  0  0
    5.7081    0.8683   -0.5583 C   0  0  0  0  0  0  0  0  0  0  0  0
    6.7654    0.5704   -1.3880 C   0  0  0  0  0  0  0  0  0  0  0  0
    6.7568   -0.5040   -2.1916 N   0  0  0  0  0  0  0  0  0  0  0  0
    5.7191   -1.3567   -2.2390 C   0  0  0  0  0  0  0  0  0  0  0  0
    5.7331   -2.4934   -3.1028 N   0  0  0  0  0  0  0  0  0  0  0  0
    4.6294   -1.0916   -1.4155 C   0  0  0  0  0  0  0  0  0  0  0  0
    4.6190    0.0129   -0.5785 C   0  0  0  0  0  0  0  0  0  0  0  0
    3.4967   -2.0078   -1.4511 C   0  0  0  0  0  0  0  0  0  0  0  0
    3.5895   -3.0035   -2.2483 O   0  0  0  0  0  0  0  0  0  0  0  0
    2.3247   -1.8400   -0.6540 N   0  0  0  0  0  0  0  0  0  0  0  0
    1.2606   -2.8156   -0.7714 C   0  0  1  0  0  0  0  0  0  0  0  0
    1.0132   -3.4984    0.5823 C   0  0  0  0  0  0  0  0  0  0  0  0
   -0.2698   -4.2425    0.2755 C   0  0  0  0  0  0  0  0  0  0  0  0
   -1.0358   -3.3185   -0.6200 C   0  0  0  0  0  0  0  0  0  0  0  0
   -0.0734   -2.1951   -1.0330 C   0  0  2  0  0  0  0  0  0  0  0  0
   -0.2773   -1.8302   -2.3387 O   0  0  0  0  0  0  0  0  0  0  0  0
   -0.6094   -0.4876   -2.4491 C   0  0  0  0  0  0  0  0  0  0  0  0
   -1.8381   -0.1514   -1.7061 C   0  0  0  0  0  0  0  0  0  0  0  0
   -1.8525    0.7316   -0.6441 C   0  0  0  0  0  0  0  0  0  0  0  0
   -3.0111    1.0237    0.0360 C   0  0  0  0  0  0  0  0  0  0  0  0
   -4.2250    0.4411   -0.3160 C   0  0  0  0  0  0  0  0  0  0  0  0
   -4.2013   -0.4384   -1.3766 C   0  0  0  0  0  0  0  0  0  0  0  0
   -3.0277   -0.7327   -2.0637 C   0  0  0  0  0  0  0  0  0  0  0  0
   -5.4583    0.7440    0.3989 C   0  0  0  0  0  0  0  0  0  0  0  0
   -5.6619    1.9870    0.9536 C   0  0  0  0  0  0  0  0  0  0  0  0
   -6.8354    2.2847    1.6414 C   0  0  0  0  0  0  0  0  0  0  0  0
   -7.8381    1.3507    1.7947 C   0  0  0  0  0  0  0  0  0  0  0  0
   -7.6303    0.1055    1.2371 C   0  0  0  0  0  0  0  0  0  0  0  0
   -6.4663   -0.1952    0.5528 C   0  0  0  0  0  0  0  0  0  0  0  0
   -9.0546    1.6839    2.5175 C   0  0  0  0  0  0  0  0  0  0  0  0
   -9.2072    2.9765    3.0772 N   0  0  0  0  0  0  0  0  0  0  0  0
   -9.9779    0.8499    2.6586 O   0  0  0  0  0  0  0  0  0  0  0  0
    8.2682    4.4767    1.9928 H   0  0  0  0  0  0  0  0  0  0  0  0
    6.9027    5.5567    2.3215 H   0  0  0  0  0  0  0  0  0  0  0  0
    7.3244    4.2168    3.5071 H   0  0  0  0  0  0  0  0  0  0  0  0
    7.8180    2.2246    0.8080 H   0  0  0  0  0  0  0  0  0  0  0  0
    3.5811    2.6479    0.4453 H   0  0  0  0  0  0  0  0  0  0  0  0
    7.6211    1.2531   -1.3643 H   0  0  0  0  0  0  0  0  0  0  0  0
    6.2097   -3.3859   -2.8764 H   0  0  0  0  0  0  0  0  0  0  0  0
    5.2366   -2.4189   -4.0102 H   0  0  0  0  0  0  0  0  0  0  0  0
    3.7707    0.2412    0.0792 H   0  0  0  0  0  0  0  0  0  0  0  0
    2.2529   -1.0433   -0.0193 H   0  0  0  0  0  0  0  0  0  0  0  0
    1.4780   -3.6011   -1.4910 H   0  0  0  0  0  0  0  0  0  0  0  0
    0.8341   -2.6769    1.2952 H   0  0  0  0  0  0  0  0  0  0  0  0
    1.8469   -4.1561    0.8518 H   0  0  0  0  0  0  0  0  0  0  0  0
    0.0377   -5.1215   -0.3613 H   0  0  0  0  0  0  0  0  0  0  0  0
   -0.8230   -4.5457    1.1760 H   0  0  0  0  0  0  0  0  0  0  0  0
   -1.3704   -3.7921   -1.5680 H   0  0  0  0  0  0  0  0  0  0  0  0
   -1.8914   -2.9034   -0.0426 H   0  0  0  0  0  0  0  0  0  0  0  0
   -0.2173   -1.3397   -0.3285 H   0  0  0  0  0  0  0  0  0  0  0  0
    0.2388    0.1746   -2.1917 H   0  0  0  0  0  0  0  0  0  0  0  0
   -0.8211   -0.2747   -3.5366 H   0  0  0  0  0  0  0  0  0  0  0  0
   -0.9104    1.1855   -0.3688 H   0  0  0  0  0  0  0  0  0  0  0  0
   -3.0320    1.7200    0.8756 H   0  0  0  0  0  0  0  0  0  0  0  0
   -5.1392   -0.9064   -1.6704 H   0  0  0  0  0  0  0  0  0  0  0  0
   -3.0493   -1.4415   -2.9058 H   0  0  0  0  0  0  0  0  0  0  0  0
   -4.8703    2.7394    0.8378 H   0  0  0  0  0  0  0  0  0  0  0  0
   -6.9384    3.2739    2.0533 H   0  0  0  0  0  0  0  0  0  0  0  0
   -8.4286   -0.6315    1.3624 H   0  0  0  0  0  0  0  0  0  0  0  0
   -6.3053   -1.1723    0.1165 H   0  0  0  0  0  0  0  0  0  0  0  0
  -10.1518    3.4409    3.1361 H   0  0  0  0  0  0  0  0  0  0  0  0
   -8.4043    3.5346    3.4579 H   0  0  0  0  0  0  0  0  0  0  0  0
  1  2  1  0
  2  3  1  0
  3  4  2  0
  4  5  1  0
  5  6  2  0
  4  7  1  0
  7  8  2  0
  8  9  1  0
  9 10  2  0
 10 11  1  0
 10 12  1  0
 12 13  2  0
 12 14  1  0
 14 15  2  0
 14 16  1  0
 16 17  1  0
 17 18  1  0
 18 19  1  0
 19 20  1  0
 20 21  1  0
 21 22  1  0
 22 23  1  0
 23 24  1  0
 24 25  2  0
 25 26  1  0
 26 27  2  0
 27 28  1  0
 28 29  2  0
 27 30  1  0
 30 31  2  0
 31 32  1  0
 32 33  2  0
 33 34  1  0
 34 35  2  0
 33 36  1  0
 36 37  1  0
 36 38  2  0
  6  2  1  0
 13  7  1  0
 21 17  1  0
 29 24  1  0
 35 30  1  0
  1 39  1  0
  1 40  1  0
  1 41  1  0
  3 42  1  0
  5 43  1  0
  8 44  1  0
 11 45  1  0
 11 46  1  0
 13 47  1  0
 16 48  1  0
 17 49  1  6
 18 50  1  0
 18 51  1  0
 19 52  1  0
 19 53  1  0
 20 54  1  0
 20 55  1  0
 21 56  1  1
 23 57  1  0
 23 58  1  0
 25 59  1  0
 26 60  1  0
 28 61  1  0
 29 62  1  0
 31 63  1  0
 32 64  1  0
 34 65  1  0
 35 66  1  0
 37 67  1  0
 37 68  1  0
M  END
$$$$
[H]O[C@]1([H])C([H])([H])C([H])([H])[C@@]([H])(N([H])c2nc(N([H])C([H])([H])C([H])([H])C([H])([H])C([H])([H])[H])nc([H])c2-c2nc([H])nc(N([H])C3([H])C([H])([H])C([H])([H])C([H])([H])C([H])([H])C([H])([H])C3([H])[H])c2[H])C([H])([H])C1([H])[H]
     RDKit          3D

 72 75  0  0  0  0  0  0  0  0999 V2000
   -7.9920   -4.1946    0.6821 C   0  0  0  0  0  0  0  0  0  0  0  0
   -8.0276   -3.6733   -0.7322 C   0  0  0  0  0  0  0  0  0  0  0  0
   -7.2507   -2.4041   -0.9020 C   0  0  0  0  0  0  0  0  0  0  0  0
   -5.7873   -2.5754   -0.5496 C   0  0  0  0  0  0  0  0  0  0  0  0
   -5.0732   -1.3421   -0.7235 N   0  0  0  0  0  0  0  0  0  0  0  0
   -3.6875   -1.2756   -0.4518 C   0  0  0  0  0  0  0  0  0  0  0  0
   -3.0765   -2.4158   -0.0259 N   0  0  0  0  0  0  0  0  0  0  0  0
   -1.7849   -2.4150    0.2401 C   0  0  0  0  0  0  0  0  0  0  0  0
   -1.0060   -1.2313    0.0894 C   0  0  0  0  0  0  0  0  0  0  0  0
   -1.6158   -0.0956   -0.3302 C   0  0  0  0  0  0  0  0  0  0  0  0
   -0.9762    1.1564   -0.3948 N   0  0  0  0  0  0  0  0  0  0  0  0
   -1.7098    2.3301   -0.9286 C   0  0  1  0  0  0  0  0  0  0  0  0
   -2.9248    2.6410   -0.1228 C   0  0  0  0  0  0  0  0  0  0  0  0
   -3.0549    4.1623   -0.0334 C   0  0  0  0  0  0  0  0  0  0  0  0
   -1.8908    4.7085    0.7489 C   0  0  2  0  0  0  0  0  0  0  0  0
   -1.9598    6.1012    0.7646 O   0  0  0  0  0  0  0  0  0  0  0  0
   -0.5684    4.2657    0.1774 C   0  0  0  0  0  0  0  0  0  0  0  0
   -0.8154    3.5166   -1.1045 C   0  0  0  0  0  0  0  0  0  0  0  0
   -2.9661   -0.1621   -0.5936 N   0  0  0  0  0  0  0  0  0  0  0  0
    0.3986   -1.3362    0.4138 C   0  0  0  0  0  0  0  0  0  0  0  0
    1.4484   -0.7175   -0.1900 C   0  0  0  0  0  0  0  0  0  0  0  0
    2.7947   -0.9547    0.1473 C   0  0  0  0  0  0  0  0  0  0  0  0
    3.8222   -0.2623   -0.5562 N   0  0  0  0  0  0  0  0  0  0  0  0
    5.2191   -0.4434   -0.2385 C   0  0  0  0  0  0  0  0  0  0  0  0
    6.1048    0.2497   -1.2506 C   0  0  0  0  0  0  0  0  0  0  0  0
    7.3359    0.8628   -0.7253 C   0  0  0  0  0  0  0  0  0  0  0  0
    8.2099    0.0936    0.1642 C   0  0  0  0  0  0  0  0  0  0  0  0
    7.6756   -1.1845    0.7301 C   0  0  0  0  0  0  0  0  0  0  0  0
    6.5606   -0.9686    1.7254 C   0  0  0  0  0  0  0  0  0  0  0  0
    5.5531   -0.0136    1.1701 C   0  0  0  0  0  0  0  0  0  0  0  0
    3.0100   -1.8464    1.1190 N   0  0  0  0  0  0  0  0  0  0  0  0
    2.0048   -2.4850    1.7440 C   0  0  0  0  0  0  0  0  0  0  0  0
    0.7452   -2.2333    1.3977 N   0  0  0  0  0  0  0  0  0  0  0  0
   -6.9904   -4.4161    1.0522 H   0  0  0  0  0  0  0  0  0  0  0  0
   -8.4617   -3.4519    1.3593 H   0  0  0  0  0  0  0  0  0  0  0  0
   -8.6804   -5.0826    0.7036 H   0  0  0  0  0  0  0  0  0  0  0  0
   -7.6927   -4.4310   -1.4549 H   0  0  0  0  0  0  0  0  0  0  0  0
   -9.0895   -3.4462   -0.9676 H   0  0  0  0  0  0  0  0  0  0  0  0
   -7.6843   -1.5509   -0.3762 H   0  0  0  0  0  0  0  0  0  0  0  0
   -7.2726   -2.1555   -1.9942 H   0  0  0  0  0  0  0  0  0  0  0  0
   -5.6782   -2.9534    0.5089 H   0  0  0  0  0  0  0  0  0  0  0  0
   -5.3021   -3.3468   -1.1813 H   0  0  0  0  0  0  0  0  0  0  0  0
   -5.5809   -0.5011   -1.0493 H   0  0  0  0  0  0  0  0  0  0  0  0
   -1.2575   -3.3001    0.5815 H   0  0  0  0  0  0  0  0  0  0  0  0
   -0.0329    1.3900   -0.0698 H   0  0  0  0  0  0  0  0  0  0  0  0
   -2.0352    2.0087   -1.9463 H   0  0  0  0  0  0  0  0  0  0  0  0
   -2.8398    2.2445    0.9102 H   0  0  0  0  0  0  0  0  0  0  0  0
   -3.8434    2.2740   -0.6253 H   0  0  0  0  0  0  0  0  0  0  0  0
   -3.0604    4.5584   -1.0690 H   0  0  0  0  0  0  0  0  0  0  0  0
   -3.9998    4.4275    0.4482 H   0  0  0  0  0  0  0  0  0  0  0  0
   -1.9871    4.3809    1.8137 H   0  0  0  0  0  0  0  0  0  0  0  0
   -2.9151    6.3645    0.7902 H   0  0  0  0  0  0  0  0  0  0  0  0
   -0.0026    3.6743    0.9222 H   0  0  0  0  0  0  0  0  0  0  0  0
    0.0312    5.1701   -0.0981 H   0  0  0  0  0  0  0  0  0  0  0  0
    0.2010    3.2228   -1.4816 H   0  0  0  0  0  0  0  0  0  0  0  0
   -1.2079    4.2223   -1.8497 H   0  0  0  0  0  0  0  0  0  0  0  0
    1.2734   -0.0293   -1.0075 H   0  0  0  0  0  0  0  0  0  0  0  0
    3.5537    0.4050   -1.3350 H   0  0  0  0  0  0  0  0  0  0  0  0
    5.4348   -1.5255   -0.3198 H   0  0  0  0  0  0  0  0  0  0  0  0
    5.4812    1.0457   -1.7123 H   0  0  0  0  0  0  0  0  0  0  0  0
    6.3460   -0.4577   -2.0849 H   0  0  0  0  0  0  0  0  0  0  0  0
    7.9276    1.2051   -1.6280 H   0  0  0  0  0  0  0  0  0  0  0  0
    7.0694    1.8421   -0.2292 H   0  0  0  0  0  0  0  0  0  0  0  0
    8.6300    0.7654    0.9709 H   0  0  0  0  0  0  0  0  0  0  0  0
    9.1395   -0.2044   -0.4093 H   0  0  0  0  0  0  0  0  0  0  0  0
    7.4258   -1.8637   -0.0828 H   0  0  0  0  0  0  0  0  0  0  0  0
    8.5118   -1.6615    1.3000 H   0  0  0  0  0  0  0  0  0  0  0  0
    6.0716   -1.9224    1.9603 H   0  0  0  0  0  0  0  0  0  0  0  0
    6.9776   -0.5693    2.6729 H   0  0  0  0  0  0  0  0  0  0  0  0
    4.6447   -0.0492    1.7891 H   0  0  0  0  0  0  0  0  0  0  0  0
    5.8880    1.0462    1.2137 H   0  0  0  0  0  0  0  0  0  0  0  0
    2.2920   -3.1862    2.5143 H   0  0  0  0  0  0  0  0  0  0  0  0
  1  2  1  0
  2  3  1  0
  3  4  1  0
  4  5  1  0
  5  6  1  0
  6  7  2  0
  7  8  1  0
  8  9  2  0
  9 10  1  0
 10 11  1  0
 11 12  1  0
 12 13  1  0
 13 14  1  0
 14 15  1  0
 15 16  1  0
 15 17  1  0
 17 18  1  0
 10 19  2  0
  9 20  1  0
 20 21  2  0
 21 22  1  0
 22 23  1  0
 23 24  1  0
 24 25  1  0
 25 26  1  0
 26 27  1  0
 27 28  1  0
 28 29  1  0
 29 30  1  0
 22 31  2  0
 31 32  1  0
 32 33  2  0
 19  6  1  0
 33 20  1  0
 18 12  1  0
 30 24  1  0
  1 34  1  0
  1 35  1  0
  1 36  1  0
  2 37  1  0
  2 38  1  0
  3 39  1  0
  3 40  1  0
  4 41  1  0
  4 42  1  0
  5 43  1  0
  8 44  1  0
 11 45  1  0
 12 46  1  6
 13 47  1  0
 13 48  1  0
 14 49  1  0
 14 50  1  0
 15 51  1  1
 16 52  1  0
 17 53  1  0
 17 54  1  0
 18 55  1  0
 18 56  1  0
 21 57  1  0
 23 58  1  0
 24 59  1  0
 25 60  1  0
 25 61  1  0
 26 62  1  0
 26 63  1  0
 27 64  1  0
 27 65  1  0
 28 66  1  0
 28 67  1  0
 29 68  1  0
 29 69  1  0
 30 70  1  0
 30 71  1  0
 32 72  1  0
M  END
$$$$
[H]c1nc2nc(c1C(=O)N([H])C1([H])C([H])([H])C([H])([H])N(C([H])([H])c3c([H])c([H])c([H])c([H])c3[H])C([H])([H])C1([H])[H])N([H])C([H])([H])C([H])([H])C([H])([H])C([H])([H])[C@]([H])(N([H])[H])C(=O)N([H])C([H])([H])c1c([H])c([H])c(c([H])c1[H])C([H])([H])N2[H]
     RDKit          3D

 81 85  0  0  0  0  0  0  0  0999 V2000
   -7.2392    0.9298    3.3156 N   0  0  0  0  0  0  0  0  0  0  0  0
   -6.2112    0.7662    2.2713 C   0  0  1  0  0  0  0  0  0  0  0  0
   -5.0195    1.6456    2.5746 C   0  0  0  0  0  0  0  0  0  0  0  0
   -4.7472    2.5179    1.3909 C   0  0  0  0  0  0  0  0  0  0  0  0
   -3.2987    2.6896    1.0514 C   0  0  0  0  0  0  0  0  0  0  0  0
   -2.7286    1.3428    0.6232 C   0  0  0  0  0  0  0  0  0  0  0  0
   -1.4508    1.5612   -0.0548 N   0  0  0  0  0  0  0  0  0  0  0  0
   -0.9112    0.5769   -0.9390 C   0  0  0  0  0  0  0  0  0  0  0  0
   -1.6277    0.1096   -1.9793 N   0  0  0  0  0  0  0  0  0  0  0  0
   -1.2434   -0.7696   -2.8738 C   0  0  0  0  0  0  0  0  0  0  0  0
   -2.0177   -1.2316   -3.9378 N   0  0  0  0  0  0  0  0  0  0  0  0
   -3.3449   -0.8965   -4.3359 C   0  0  0  0  0  0  0  0  0  0  0  0
   -4.3059   -1.0164   -3.1722 C   0  0  0  0  0  0  0  0  0  0  0  0
   -4.9876    0.0722   -2.7074 C   0  0  0  0  0  0  0  0  0  0  0  0
   -5.9106   -0.0652   -1.6271 C   0  0  0  0  0  0  0  0  0  0  0  0
   -6.1789   -1.2555   -0.9883 C   0  0  0  0  0  0  0  0  0  0  0  0
   -7.1613   -1.3678    0.1616 C   0  0  0  0  0  0  0  0  0  0  0  0
   -6.5782   -1.6294    1.4553 N   0  0  0  0  0  0  0  0  0  0  0  0
   -5.8089   -0.6673    2.1670 C   0  0  0  0  0  0  0  0  0  0  0  0
   -4.7334   -1.0048    2.7478 O   0  0  0  0  0  0  0  0  0  0  0  0
   -5.4813   -2.3352   -1.4709 C   0  0  0  0  0  0  0  0  0  0  0  0
   -4.5621   -2.2137   -2.5446 C   0  0  0  0  0  0  0  0  0  0  0  0
    0.0353   -1.2585   -2.7154 N   0  0  0  0  0  0  0  0  0  0  0  0
    0.8228   -0.8629   -1.7209 C   0  0  0  0  0  0  0  0  0  0  0  0
    0.3857    0.0685   -0.7917 C   0  0  0  0  0  0  0  0  0  0  0  0
    1.2466    0.4688    0.3110 C   0  0  0  0  0  0  0  0  0  0  0  0
    0.7811    1.2745    1.1595 O   0  0  0  0  0  0  0  0  0  0  0  0
    2.5651    0.0292    0.5123 N   0  0  0  0  0  0  0  0  0  0  0  0
    3.3601    0.4710    1.6444 C   0  0  0  0  0  0  0  0  0  0  0  0
    4.4857    1.3923    1.2275 C   0  0  0  0  0  0  0  0  0  0  0  0
    5.5332    0.6394    0.4270 C   0  0  0  0  0  0  0  0  0  0  0  0
    6.0117   -0.4807    1.1648 N   0  0  0  0  0  0  0  0  0  0  0  0
    7.4360   -0.4719    1.2623 C   0  0  0  0  0  0  0  0  0  0  0  0
    8.0930   -0.5525   -0.0526 C   0  0  0  0  0  0  0  0  0  0  0  0
    8.6771    0.5157   -0.6890 C   0  0  0  0  0  0  0  0  0  0  0  0
    9.2754    0.3975   -1.9086 C   0  0  0  0  0  0  0  0  0  0  0  0
    9.3126   -0.8130   -2.5498 C   0  0  0  0  0  0  0  0  0  0  0  0
    8.7467   -1.9080   -1.9616 C   0  0  0  0  0  0  0  0  0  0  0  0
    8.1520   -1.7723   -0.7408 C   0  0  0  0  0  0  0  0  0  0  0  0
    5.4261   -0.5891    2.4792 C   0  0  0  0  0  0  0  0  0  0  0  0
    3.9264   -0.7059    2.3601 C   0  0  0  0  0  0  0  0  0  0  0  0
   -6.9609    0.4281    4.1907 H   0  0  0  0  0  0  0  0  0  0  0  0
   -7.2579    1.9813    3.4829 H   0  0  0  0  0  0  0  0  0  0  0  0
   -6.6929    1.1231    1.3327 H   0  0  0  0  0  0  0  0  0  0  0  0
   -4.1560    0.9774    2.7486 H   0  0  0  0  0  0  0  0  0  0  0  0
   -5.2150    2.2471    3.4949 H   0  0  0  0  0  0  0  0  0  0  0  0
   -5.2100    3.5251    1.6114 H   0  0  0  0  0  0  0  0  0  0  0  0
   -5.3075    2.1333    0.5188 H   0  0  0  0  0  0  0  0  0  0  0  0
   -2.7078    3.1421    1.8589 H   0  0  0  0  0  0  0  0  0  0  0  0
   -3.2486    3.3992    0.1959 H   0  0  0  0  0  0  0  0  0  0  0  0
   -2.5288    0.7452    1.5578 H   0  0  0  0  0  0  0  0  0  0  0  0
   -3.4303    0.7449    0.0327 H   0  0  0  0  0  0  0  0  0  0  0  0
   -0.9835    2.4745    0.1442 H   0  0  0  0  0  0  0  0  0  0  0  0
   -1.5447   -1.9636   -4.5718 H   0  0  0  0  0  0  0  0  0  0  0  0
   -3.6923   -1.5076   -5.2466 H   0  0  0  0  0  0  0  0  0  0  0  0
   -3.2491    0.0617   -4.8583 H   0  0  0  0  0  0  0  0  0  0  0  0
   -4.9665    1.1681   -3.0237 H   0  0  0  0  0  0  0  0  0  0  0  0
   -6.3126    0.9783   -1.4560 H   0  0  0  0  0  0  0  0  0  0  0  0
   -7.9269   -2.1762   -0.0345 H   0  0  0  0  0  0  0  0  0  0  0  0
   -7.7869   -0.4859    0.3922 H   0  0  0  0  0  0  0  0  0  0  0  0
   -6.7164   -2.5590    1.9038 H   0  0  0  0  0  0  0  0  0  0  0  0
   -5.4775   -3.4315   -1.1444 H   0  0  0  0  0  0  0  0  0  0  0  0
   -4.1452   -3.2580   -2.7284 H   0  0  0  0  0  0  0  0  0  0  0  0
    1.8367   -1.2760   -1.6297 H   0  0  0  0  0  0  0  0  0  0  0  0
    2.9970   -0.6402   -0.1670 H   0  0  0  0  0  0  0  0  0  0  0  0
    2.7004    1.0688    2.3009 H   0  0  0  0  0  0  0  0  0  0  0  0
    4.1008    2.2347    0.6267 H   0  0  0  0  0  0  0  0  0  0  0  0
    4.9062    1.8308    2.1617 H   0  0  0  0  0  0  0  0  0  0  0  0
    6.3065    1.3725    0.1694 H   0  0  0  0  0  0  0  0  0  0  0  0
    5.0335    0.3133   -0.5115 H   0  0  0  0  0  0  0  0  0  0  0  0
    7.7538   -1.3411    1.8971 H   0  0  0  0  0  0  0  0  0  0  0  0
    7.7274    0.4929    1.7463 H   0  0  0  0  0  0  0  0  0  0  0  0
    8.6522    1.4758   -0.1808 H   0  0  0  0  0  0  0  0  0  0  0  0
    9.7099    1.2883   -2.3430 H   0  0  0  0  0  0  0  0  0  0  0  0
    9.8031   -0.8734   -3.5350 H   0  0  0  0  0  0  0  0  0  0  0  0
    8.7929   -2.8454   -2.4849 H   0  0  0  0  0  0  0  0  0  0  0  0
    7.6973   -2.6497   -0.2746 H   0  0  0  0  0  0  0  0  0  0  0  0
    5.7917   -1.5449    2.9215 H   0  0  0  0  0  0  0  0  0  0  0  0
    5.7254    0.2378    3.1680 H   0  0  0  0  0  0  0  0  0  0  0  0
    3.5295   -0.8413    3.3939 H   0  0  0  0  0  0  0  0  0  0  0  0
    3.7288   -1.6516    1.7937 H   0  0  0  0  0  0  0  0  0  0  0  0
  1  2  1  0
  2  3  1  0
  3  4  1  0
  4  5  1  0
  5  6  1  0
  6  7  1  0
  7  8  1  0
  8  9  2  0
  9 10  1  0
 10 11  1  0
 11 12  1  0
 12 13  1  0
 13 14  2  0
 14 15  1  0
 15 16  2  0
 16 17  1  0
 17 18  1  0
 18 19  1  0
 19 20  2  0
 16 21  1  0
 21 22  2  0
 10 23  2  0
 23 24  1  0
 24 25  2  0
 25 26  1  0
 26 27  2  0
 26 28  1  0
 28 29  1  0
 29 30  1  0
 30 31  1  0
 31 32  1  0
 32 33  1  0
 33 34  1  0
 34 35  2  0
 35 36  1  0
 36 37  2  0
 37 38  1  0
 38 39  2  0
 32 40  1  0
 40 41  1  0
 19  2  1  0
 41 29  1  0
 25  8  1  0
 39 34  1  0
 22 13  1  0
  1 42  1  0
  1 43  1  0
  2 44  1  6
  3 45  1  0
  3 46  1  0
  4 47  1  0
  4 48  1  0
  5 49  1  0
  5 50  1  0
  6 51  1  0
  6 52  1  0
  7 53  1  0
 11 54  1  0
 12 55  1  0
 12 56  1  0
 14 57  1  0
 15 58  1  0
 17 59  1  0
 17 60  1  0
 18 61  1  0
 21 62  1  0
 22 63  1  0
 24 64  1  0
 28 65  1  0
 29 66  1  0
 30 67  1  0
 30 68  1  0
 31 69  1  0
 31 70  1  0
 33 71  1  0
 33 72  1  0
 35 73  1  0
 36 74  1  0
 37 75  1  0
 38 76  1  0
 39 77  1  0
 40 78  1  0
 40 79  1  0
 41 80  1  0
 41 81  1  0
M  END
$$$$
[H]O[C@]1([H])C([H])([H])C([H])([H])[C@@]([H])(n2c([H])c(-c3c([H])c([H])c(C([H])([H])N4C([H])([H])C([H])([H])N(C([H])([H])[H])C([H])([H])C([H])([H])C4([H])[H])c([H])c3[H])c3c([H])nc(N([H])[C@@]([H])(C([H])([H])[H])C([H])([H])C([H])([H])C([H])([H])[H])nc32)C([H])([H])C1([H])[H]
     RDKit          3D

 81 85  0  0  0  0  0  0  0  0999 V2000
   -7.5647   -2.5103    1.2261 C   0  0  0  0  0  0  0  0  0  0  0  0
   -7.5206   -3.7390    0.3674 C   0  0  0  0  0  0  0  0  0  0  0  0
   -6.8712   -3.5390   -0.9482 C   0  0  0  0  0  0  0  0  0  0  0  0
   -5.4509   -3.1017   -0.9438 C   0  0  2  0  0  0  0  0  0  0  0  0
   -4.5320   -4.0678   -0.2321 C   0  0  0  0  0  0  0  0  0  0  0  0
   -5.2241   -1.7201   -0.6116 N   0  0  0  0  0  0  0  0  0  0  0  0
   -3.9155   -1.1526   -0.5469 C   0  0  0  0  0  0  0  0  0  0  0  0
   -2.8456   -1.9253   -0.8066 N   0  0  0  0  0  0  0  0  0  0  0  0
   -1.5802   -1.4724   -0.7674 C   0  0  0  0  0  0  0  0  0  0  0  0
   -1.3608   -0.1488   -0.4450 C   0  0  0  0  0  0  0  0  0  0  0  0
   -0.2569    0.6606   -0.3060 C   0  0  0  0  0  0  0  0  0  0  0  0
   -0.7428    1.9065    0.0388 C   0  0  0  0  0  0  0  0  0  0  0  0
   -2.0864    1.8692    0.1098 N   0  0  0  0  0  0  0  0  0  0  0  0
   -2.8488    3.0515    0.4544 C   0  0  1  0  0  0  0  0  0  0  0  0
   -2.3281    4.1821   -0.3422 C   0  0  0  0  0  0  0  0  0  0  0  0
   -3.1834    5.3426   -0.5782 C   0  0  0  0  0  0  0  0  0  0  0  0
   -4.6204    5.2410   -0.2005 C   0  0  2  0  0  0  0  0  0  0  0  0
   -5.1065    6.4645    0.2992 O   0  0  0  0  0  0  0  0  0  0  0  0
   -4.9102    4.2099    0.8556 C   0  0  0  0  0  0  0  0  0  0  0  0
   -4.3163    2.8853    0.3450 C   0  0  0  0  0  0  0  0  0  0  0  0
   -2.4633    0.6282   -0.1821 C   0  0  0  0  0  0  0  0  0  0  0  0
   -3.7179    0.1388   -0.2313 N   0  0  0  0  0  0  0  0  0  0  0  0
    1.1302    0.2506   -0.4928 C   0  0  0  0  0  0  0  0  0  0  0  0
    1.6369   -0.9101    0.0339 C   0  0  0  0  0  0  0  0  0  0  0  0
    2.9613   -1.2150   -0.1949 C   0  0  0  0  0  0  0  0  0  0  0  0
    3.8015   -0.4063   -0.9294 C   0  0  0  0  0  0  0  0  0  0  0  0
    5.2092   -0.7349   -1.1682 C   0  0  0  0  0  0  0  0  0  0  0  0
    5.7255   -1.5116   -0.0944 N   0  0  0  0  0  0  0  0  0  0  0  0
    5.7323   -0.8917    1.1836 C   0  0  0  0  0  0  0  0  0  0  0  0
    7.0179   -0.1649    1.5174 C   0  0  0  0  0  0  0  0  0  0  0  0
    8.1368   -1.1418    1.6412 C   0  0  0  0  0  0  0  0  0  0  0  0
    8.9193   -1.2668    0.4306 N   0  0  0  0  0  0  0  0  0  0  0  0
    9.7989   -0.1304    0.2464 C   0  0  0  0  0  0  0  0  0  0  0  0
    8.1048   -1.5070   -0.7339 C   0  0  0  0  0  0  0  0  0  0  0  0
    6.8652   -2.3021   -0.4291 C   0  0  0  0  0  0  0  0  0  0  0  0
    3.2508    0.7520   -1.4412 C   0  0  0  0  0  0  0  0  0  0  0  0
    1.9335    1.0853   -1.2314 C   0  0  0  0  0  0  0  0  0  0  0  0
   -8.2045   -2.6847    2.1311 H   0  0  0  0  0  0  0  0  0  0  0  0
   -8.0693   -1.6897    0.6659 H   0  0  0  0  0  0  0  0  0  0  0  0
   -6.5726   -2.2262    1.6136 H   0  0  0  0  0  0  0  0  0  0  0  0
   -7.0864   -4.5607    0.9721 H   0  0  0  0  0  0  0  0  0  0  0  0
   -8.5816   -4.0521    0.1713 H   0  0  0  0  0  0  0  0  0  0  0  0
   -7.4484   -2.7167   -1.4688 H   0  0  0  0  0  0  0  0  0  0  0  0
   -6.9497   -4.4255   -1.6226 H   0  0  0  0  0  0  0  0  0  0  0  0
   -5.1210   -3.1750   -2.0370 H   0  0  0  0  0  0  0  0  0  0  0  0
   -3.6567   -4.3760   -0.8385 H   0  0  0  0  0  0  0  0  0  0  0  0
   -5.0506   -5.0126    0.0353 H   0  0  0  0  0  0  0  0  0  0  0  0
   -4.1632   -3.5696    0.6876 H   0  0  0  0  0  0  0  0  0  0  0  0
   -6.0282   -1.1070   -0.4186 H   0  0  0  0  0  0  0  0  0  0  0  0
   -0.7130   -2.0826   -0.9744 H   0  0  0  0  0  0  0  0  0  0  0  0
   -0.0862    2.7614    0.2160 H   0  0  0  0  0  0  0  0  0  0  0  0
   -2.6139    3.2557    1.5376 H   0  0  0  0  0  0  0  0  0  0  0  0
   -2.0113    3.7662   -1.3469 H   0  0  0  0  0  0  0  0  0  0  0  0
   -1.3376    4.4813    0.1200 H   0  0  0  0  0  0  0  0  0  0  0  0
   -3.1453    5.6947   -1.6531 H   0  0  0  0  0  0  0  0  0  0  0  0
   -2.7580    6.2249   -0.0122 H   0  0  0  0  0  0  0  0  0  0  0  0
   -5.2750    5.0013   -1.0671 H   0  0  0  0  0  0  0  0  0  0  0  0
   -4.3660    7.1248    0.2210 H   0  0  0  0  0  0  0  0  0  0  0  0
   -6.0041    4.1389    0.9740 H   0  0  0  0  0  0  0  0  0  0  0  0
   -4.3783    4.5093    1.7811 H   0  0  0  0  0  0  0  0  0  0  0  0
   -4.6762    2.7657   -0.6971 H   0  0  0  0  0  0  0  0  0  0  0  0
   -4.7393    2.1322    1.0425 H   0  0  0  0  0  0  0  0  0  0  0  0
    0.9954   -1.5829    0.6282 H   0  0  0  0  0  0  0  0  0  0  0  0
    3.3298   -2.1550    0.2446 H   0  0  0  0  0  0  0  0  0  0  0  0
    5.7621    0.2115   -1.3458 H   0  0  0  0  0  0  0  0  0  0  0  0
    5.2679   -1.3097   -2.1120 H   0  0  0  0  0  0  0  0  0  0  0  0
    4.9060   -0.1811    1.2646 H   0  0  0  0  0  0  0  0  0  0  0  0
    5.6238   -1.6906    1.9530 H   0  0  0  0  0  0  0  0  0  0  0  0
    7.2432    0.6411    0.7928 H   0  0  0  0  0  0  0  0  0  0  0  0
    6.8514    0.3326    2.4990 H   0  0  0  0  0  0  0  0  0  0  0  0
    7.8015   -2.1200    2.0068 H   0  0  0  0  0  0  0  0  0  0  0  0
    8.8419   -0.7397    2.4231 H   0  0  0  0  0  0  0  0  0  0  0  0
    9.4479    0.3997   -0.6656 H   0  0  0  0  0  0  0  0  0  0  0  0
   10.8251   -0.5214    0.0356 H   0  0  0  0  0  0  0  0  0  0  0  0
    9.8056    0.5614    1.1082 H   0  0  0  0  0  0  0  0  0  0  0  0
    8.7202   -2.0957   -1.4445 H   0  0  0  0  0  0  0  0  0  0  0  0
    7.8295   -0.5602   -1.1957 H   0  0  0  0  0  0  0  0  0  0  0  0
    6.6080   -2.8713   -1.3595 H   0  0  0  0  0  0  0  0  0  0  0  0
    7.0359   -3.0759    0.3471 H   0  0  0  0  0  0  0  0  0  0  0  0
    3.8391    1.4493   -2.0329 H   0  0  0  0  0  0  0  0  0  0  0  0
    1.5243    2.0213   -1.6561 H   0  0  0  0  0  0  0  0  0  0  0  0
  1  2  1  0
  2  3  1  0
  3  4  1  0
  4  5  1  0
  4  6  1  0
  6  7  1  0
  7  8  2  0
  8  9  1  0
  9 10  2  0
 10 11  1  0
 11 12  2  0
 12 13  1  0
 13 14  1  0
 14 15  1  0
 15 16  1  0
 16 17  1  0
 17 18  1  0
 17 19  1  0
 19 20  1  0
 13 21  1  0
 21 22  2  0
 11 23  1  0
 23 24  2  0
 24 25  1  0
 25 26  2  0
 26 27  1  0
 27 28  1  0
 28 29  1  0
 29 30  1  0
 30 31  1  0
 31 32  1  0
 32 33  1  0
 32 34  1  0
 34 35  1  0
 26 36  1  0
 36 37  2  0
 22  7  1  0
 37 23  1  0
 21 10  1  0
 35 28  1  0
 20 14  1  0
  1 38  1  0
  1 39  1  0
  1 40  1  0
  2 41  1  0
  2 42  1  0
  3 43  1  0
  3 44  1  0
  4 45  1  6
  5 46  1  0
  5 47  1  0
  5 48  1  0
  6 49  1  0
  9 50  1  0
 12 51  1  0
 14 52  1  1
 15 53  1  0
 15 54  1  0
 16 55  1  0
 16 56  1  0
 17 57  1  6
 18 58  1  0
 19 59  1  0
 19 60  1  0
 20 61  1  0
 20 62  1  0
 24 63  1  0
 25 64  1  0
 27 65  1  0
 27 66  1  0
 29 67  1  0
 29 68  1  0
 30 69  1  0
 30 70  1  0
 31 71  1  0
 31 72  1  0
 33 73  1  0
 33 74  1  0
 33 75  1  0
 34 76  1  0
 34 77  1  0
 35 78  1  0
 35 79  1  0
 36 80  1  0
 37 81  1  0
M  END
$$$$
[H]O[C@]1([H])C([H])([H])C([H])([H])[C@@]([H])(N([H])c2nc(N([H])C([H])([H])C([H])([H])C([H])([H])C([H])([H])[H])nc([H])c2-c2nc([H])nc(N([H])c3c([H])c([H])c([H])c(OC([H])([H])[H])c3[H])c2[H])C([H])([H])C1([H])[H]
     RDKit          3D

 67 70  0  0  0  0  0  0  0  0999 V2000
   -4.8158   -5.3298    1.2986 C   0  0  0  0  0  0  0  0  0  0  0  0
   -4.9245   -4.6634   -0.0582 C   0  0  0  0  0  0  0  0  0  0  0  0
   -4.5653   -3.1967    0.1323 C   0  0  0  0  0  0  0  0  0  0  0  0
   -4.6398   -2.4425   -1.1460 C   0  0  0  0  0  0  0  0  0  0  0  0
   -4.3038   -1.0640   -0.9443 N   0  0  0  0  0  0  0  0  0  0  0  0
   -2.9683   -0.6824   -0.6623 C   0  0  0  0  0  0  0  0  0  0  0  0
   -2.0133   -1.6148   -0.5994 N   0  0  0  0  0  0  0  0  0  0  0  0
   -0.7422   -1.3317   -0.3395 C   0  0  0  0  0  0  0  0  0  0  0  0
   -0.3875    0.0098   -0.1216 C   0  0  0  0  0  0  0  0  0  0  0  0
   -1.3318    0.9859   -0.1788 C   0  0  0  0  0  0  0  0  0  0  0  0
   -1.0551    2.3442   -0.0111 N   0  0  0  0  0  0  0  0  0  0  0  0
   -2.0883    3.3712   -0.0617 C   0  0  1  0  0  0  0  0  0  0  0  0
   -2.7843    3.4950   -1.3604 C   0  0  0  0  0  0  0  0  0  0  0  0
   -4.2795    3.6055   -1.2592 C   0  0  0  0  0  0  0  0  0  0  0  0
   -4.7562    4.5110   -0.1730 C   0  0  2  0  0  0  0  0  0  0  0  0
   -4.9232    5.8400   -0.6104 O   0  0  0  0  0  0  0  0  0  0  0  0
   -3.8821    4.5381    1.0524 C   0  0  0  0  0  0  0  0  0  0  0  0
   -3.1175    3.2048    1.0509 C   0  0  0  0  0  0  0  0  0  0  0  0
   -2.6180    0.5976   -0.4524 N   0  0  0  0  0  0  0  0  0  0  0  0
    1.0470    0.2432    0.1384 C   0  0  0  0  0  0  0  0  0  0  0  0
    1.9815   -0.7104   -0.2411 C   0  0  0  0  0  0  0  0  0  0  0  0
    3.3415   -0.4976   -0.0326 C   0  0  0  0  0  0  0  0  0  0  0  0
    4.2462   -1.4948   -0.4572 N   0  0  0  0  0  0  0  0  0  0  0  0
    5.6551   -1.5095   -0.3142 C   0  0  0  0  0  0  0  0  0  0  0  0
    6.4150   -2.3636   -1.1408 C   0  0  0  0  0  0  0  0  0  0  0  0
    7.7732   -2.4675   -1.0700 C   0  0  0  0  0  0  0  0  0  0  0  0
    8.4533   -1.7132   -0.1570 C   0  0  0  0  0  0  0  0  0  0  0  0
    7.7663   -0.8733    0.6646 C   0  0  0  0  0  0  0  0  0  0  0  0
    8.4081   -0.1004    1.5927 O   0  0  0  0  0  0  0  0  0  0  0  0
    9.8069   -0.1133    1.7675 C   0  0  0  0  0  0  0  0  0  0  0  0
    6.3761   -0.7765    0.5822 C   0  0  0  0  0  0  0  0  0  0  0  0
    3.6973    0.6434    0.5373 N   0  0  0  0  0  0  0  0  0  0  0  0
    2.8340    1.5879    0.9174 C   0  0  0  0  0  0  0  0  0  0  0  0
    1.5443    1.3432    0.6996 N   0  0  0  0  0  0  0  0  0  0  0  0
   -5.5819   -4.8235    1.9461 H   0  0  0  0  0  0  0  0  0  0  0  0
   -3.8369   -5.0806    1.7600 H   0  0  0  0  0  0  0  0  0  0  0  0
   -4.9698   -6.4164    1.2442 H   0  0  0  0  0  0  0  0  0  0  0  0
   -4.1943   -5.1688   -0.7204 H   0  0  0  0  0  0  0  0  0  0  0  0
   -5.9502   -4.7970   -0.4422 H   0  0  0  0  0  0  0  0  0  0  0  0
   -5.3524   -2.7940    0.8177 H   0  0  0  0  0  0  0  0  0  0  0  0
   -3.5706   -3.1652    0.5570 H   0  0  0  0  0  0  0  0  0  0  0  0
   -5.6096   -2.5647   -1.6777 H   0  0  0  0  0  0  0  0  0  0  0  0
   -3.8546   -2.8705   -1.8368 H   0  0  0  0  0  0  0  0  0  0  0  0
   -5.0781   -0.3383   -1.0113 H   0  0  0  0  0  0  0  0  0  0  0  0
   -0.0458   -2.1499   -0.2952 H   0  0  0  0  0  0  0  0  0  0  0  0
   -0.1094    2.6991    0.1421 H   0  0  0  0  0  0  0  0  0  0  0  0
   -1.6006    4.3546    0.1510 H   0  0  0  0  0  0  0  0  0  0  0  0
   -2.5495    2.6203   -1.9939 H   0  0  0  0  0  0  0  0  0  0  0  0
   -2.3577    4.3645   -1.9519 H   0  0  0  0  0  0  0  0  0  0  0  0
   -4.7612    2.6079   -1.2357 H   0  0  0  0  0  0  0  0  0  0  0  0
   -4.6232    4.0632   -2.2346 H   0  0  0  0  0  0  0  0  0  0  0  0
   -5.7624    4.1669    0.1460 H   0  0  0  0  0  0  0  0  0  0  0  0
   -4.0525    6.2859   -0.7706 H   0  0  0  0  0  0  0  0  0  0  0  0
   -4.4490    4.6412    1.9960 H   0  0  0  0  0  0  0  0  0  0  0  0
   -3.1146    5.3270    0.9228 H   0  0  0  0  0  0  0  0  0  0  0  0
   -2.6509    3.0040    2.0270 H   0  0  0  0  0  0  0  0  0  0  0  0
   -3.8827    2.4555    0.7658 H   0  0  0  0  0  0  0  0  0  0  0  0
    1.6927   -1.6159   -0.7085 H   0  0  0  0  0  0  0  0  0  0  0  0
    3.8199   -2.3487   -0.9469 H   0  0  0  0  0  0  0  0  0  0  0  0
    5.8627   -2.9652   -1.8713 H   0  0  0  0  0  0  0  0  0  0  0  0
    8.3516   -3.1328   -1.7159 H   0  0  0  0  0  0  0  0  0  0  0  0
    9.5508   -1.7701   -0.0709 H   0  0  0  0  0  0  0  0  0  0  0  0
   10.1328    0.7404    2.3934 H   0  0  0  0  0  0  0  0  0  0  0  0
   10.2602   -0.0312    0.7499 H   0  0  0  0  0  0  0  0  0  0  0  0
   10.1089   -1.0906    2.1698 H   0  0  0  0  0  0  0  0  0  0  0  0
    5.8522   -0.1056    1.2641 H   0  0  0  0  0  0  0  0  0  0  0  0
    3.1772    2.5231    1.3883 H   0  0  0  0  0  0  0  0  0  0  0  0
  1  2  1  0
  2  3  1  0
  3  4  1  0
  4  5  1  0
  5  6  1  0
  6  7  2  0
  7  8  1  0
  8  9  2  0
  9 10  1  0
 10 11  1  0
 11 12  1  0
 12 13  1  0
 13 14  1  0
 14 15  1  0
 15 16  1  0
 15 17  1  0
 17 18  1  0
 10 19  2  0
  9 20  1  0
 20 21  2  0
 21 22  1  0
 22 23  1  0
 23 24  1  0
 24 25  2  0
 25 26  1  0
 26 27  2  0
 27 28  1  0
 28 29  1  0
 29 30  1  0
 28 31  2  0
 22 32  2  0
 32 33  1  0
 33 34  2  0
 19  6  1  0
 34 20  1  0
 18 12  1  0
 31 24  1  0
  1 35  1  0
  1 36  1  0
  1 37  1  0
  2 38  1  0
  2 39  1  0
  3 40  1  0
  3 41  1  0
  4 42  1  0
  4 43  1  0
  5 44  1  0
  8 45  1  0
 11 46  1  0
 12 47  1  1
 13 48  1  0
 13 49  1  0
 14 50  1  0
 14 51  1  0
 15 52  1  1
 16 53  1  0
 17 54  1  0
 17 55  1  0
 18 56  1  0
 18 57  1  0
 21 58  1  0
 23 59  1  0
 25 60  1  0
 26 61  1  0
 27 62  1  0
 30 63  1  0
 30 64  1  0
 30 65  1  0
 31 66  1  0
 33 67  1  0
M  END
$$$$
[H]c1nc(N([H])[H])c(C(=O)N([H])[C@@]2([H])C([H])([H])C([H])([H])C([H])([H])[C@]2([H])OC([H])([H])c2c([H])c(C([H])([H])[H])c([H])c([H])c2C([H])([H])[H])c([H])c1-c1c([H])nn(C([H])([H])[H])c1[H]
     RDKit          3D

 60 63  0  0  0  0  0  0  0  0999 V2000
    7.5481   -0.1415   -1.3853 C   0  0  0  0  0  0  0  0  0  0  0  0
    6.5827    0.6043   -0.5216 C   0  0  0  0  0  0  0  0  0  0  0  0
    7.0543    1.4083    0.5106 C   0  0  0  0  0  0  0  0  0  0  0  0
    6.2120    2.1653    1.2845 C   0  0  0  0  0  0  0  0  0  0  0  0
    4.8749    2.1253    1.0466 C   0  0  0  0  0  0  0  0  0  0  0  0
    3.8654    2.8729    1.8590 C   0  0  0  0  0  0  0  0  0  0  0  0
    4.3710    1.3112   -0.0044 C   0  0  0  0  0  0  0  0  0  0  0  0
    2.8703    1.4767   -0.1892 C   0  0  0  0  0  0  0  0  0  0  0  0
    2.1071    0.5037   -0.0271 O   0  0  0  0  0  0  0  0  0  0  0  0
    1.4063   -0.5529   -0.1091 C   0  0  1  0  0  0  0  0  0  0  0  0
    2.4746   -1.7320    0.2967 C   0  0  0  0  0  0  0  0  0  0  0  0
    1.5562   -2.8327    0.6580 C   0  0  0  0  0  0  0  0  0  0  0  0
    0.6756   -2.0527    1.6845 C   0  0  0  0  0  0  0  0  0  0  0  0
    0.3486   -0.7543    0.9020 C   0  0  2  0  0  0  0  0  0  0  0  0
   -1.0123   -0.8301    0.5128 N   0  0  0  0  0  0  0  0  0  0  0  0
   -1.5159   -1.4103   -0.6623 C   0  0  0  0  0  0  0  0  0  0  0  0
   -0.8006   -1.8735   -1.5294 O   0  0  0  0  0  0  0  0  0  0  0  0
   -2.9732   -1.4784   -0.9025 C   0  0  0  0  0  0  0  0  0  0  0  0
   -3.9306   -0.7513   -0.1687 C   0  0  0  0  0  0  0  0  0  0  0  0
   -5.2591   -0.8045   -0.5244 C   0  0  0  0  0  0  0  0  0  0  0  0
   -5.6281   -1.6032   -1.6268 C   0  0  0  0  0  0  0  0  0  0  0  0
   -4.7083   -2.2879   -2.3126 N   0  0  0  0  0  0  0  0  0  0  0  0
   -3.3949   -2.2457   -1.9845 C   0  0  0  0  0  0  0  0  0  0  0  0
   -2.5858   -3.0158   -2.8338 N   0  0  0  0  0  0  0  0  0  0  0  0
   -6.3086    0.0502    0.0185 C   0  0  0  0  0  0  0  0  0  0  0  0
   -7.6470   -0.2445    0.1573 C   0  0  0  0  0  0  0  0  0  0  0  0
   -8.2853    0.9074    0.5533 N   0  0  0  0  0  0  0  0  0  0  0  0
   -7.4113    1.9008    0.6678 N   0  0  0  0  0  0  0  0  0  0  0  0
   -7.7209    3.2952    1.0307 C   0  0  0  0  0  0  0  0  0  0  0  0
   -6.1916    1.3899    0.3401 C   0  0  0  0  0  0  0  0  0  0  0  0
    5.1952    0.5912   -0.7476 C   0  0  0  0  0  0  0  0  0  0  0  0
    7.9358   -1.0401   -0.9417 H   0  0  0  0  0  0  0  0  0  0  0  0
    7.1653   -0.2730   -2.4002 H   0  0  0  0  0  0  0  0  0  0  0  0
    8.4045    0.6238   -1.4897 H   0  0  0  0  0  0  0  0  0  0  0  0
    8.1451    1.4039    0.7072 H   0  0  0  0  0  0  0  0  0  0  0  0
    6.5924    2.7524    2.0908 H   0  0  0  0  0  0  0  0  0  0  0  0
    3.2798    3.6059    1.2089 H   0  0  0  0  0  0  0  0  0  0  0  0
    4.3683    3.5331    2.5852 H   0  0  0  0  0  0  0  0  0  0  0  0
    3.2121    2.1645    2.3969 H   0  0  0  0  0  0  0  0  0  0  0  0
    2.9551    1.4716   -1.4749 H   0  0  0  0  0  0  0  0  0  0  0  0
    2.6244    2.5485   -0.1759 H   0  0  0  0  0  0  0  0  0  0  0  0
    1.2261   -0.9580   -1.1575 H   0  0  0  0  0  0  0  0  0  0  0  0
    2.9940   -1.3340    1.1707 H   0  0  0  0  0  0  0  0  0  0  0  0
    3.0636   -1.9114   -0.6171 H   0  0  0  0  0  0  0  0  0  0  0  0
    2.0894   -3.6459    1.2478 H   0  0  0  0  0  0  0  0  0  0  0  0
    0.9745   -3.1997   -0.1288 H   0  0  0  0  0  0  0  0  0  0  0  0
    1.3769   -1.7682    2.5330 H   0  0  0  0  0  0  0  0  0  0  0  0
   -0.2076   -2.5876    2.0077 H   0  0  0  0  0  0  0  0  0  0  0  0
    0.4103    0.1166    1.6270 H   0  0  0  0  0  0  0  0  0  0  0  0
   -1.7366   -0.3972    1.1757 H   0  0  0  0  0  0  0  0  0  0  0  0
   -3.5918   -0.1671    0.6862 H   0  0  0  0  0  0  0  0  0  0  0  0
   -6.7042   -1.6500   -1.8477 H   0  0  0  0  0  0  0  0  0  0  0  0
   -2.6465   -4.0867   -2.7984 H   0  0  0  0  0  0  0  0  0  0  0  0
   -1.9086   -2.6147   -3.5278 H   0  0  0  0  0  0  0  0  0  0  0  0
   -8.1380   -1.2182   -0.0269 H   0  0  0  0  0  0  0  0  0  0  0  0
   -8.5113    3.2171    1.7628 H   0  0  0  0  0  0  0  0  0  0  0  0
   -6.7587    3.6790    1.4622 H   0  0  0  0  0  0  0  0  0  0  0  0
   -7.9800    3.8427    0.1288 H   0  0  0  0  0  0  0  0  0  0  0  0
   -5.2454    1.9411    0.3757 H   0  0  0  0  0  0  0  0  0  0  0  0
    4.8425   -0.0398   -1.5654 H   0  0  0  0  0  0  0  0  0  0  0  0
  1  2  1  0
  2  3  2  0
  3  4  1  0
  4  5  2  0
  5  6  1  0
  5  7  1  0
  7  8  1  0
  8  9  1  0
  9 10  1  0
 10 11  1  0
 11 12  1  0
 12 13  1  0
 13 14  1  0
 14 15  1  0
 15 16  1  0
 16 17  2  0
 16 18  1  0
 18 19  2  0
 19 20  1  0
 20 21  2  0
 21 22  1  0
 22 23  2  0
 23 24  1  0
 20 25  1  0
 25 26  1  0
 26 27  2  0
 27 28  1  0
 28 29  1  0
 28 30  1  0
  7 31  2  0
 31  2  1  0
 14 10  1  0
 23 18  1  0
 30 25  2  0
  1 32  1  0
  1 33  1  0
  1 34  1  0
  3 35  1  0
  4 36  1  0
  6 37  1  0
  6 38  1  0
  6 39  1  0
  8 40  1  0
  8 41  1  0
 10 42  1  6
 11 43  1  0
 11 44  1  0
 12 45  1  0
 12 46  1  0
 13 47  1  0
 13 48  1  0
 14 49  1  1
 15 50  1  0
 19 51  1  0
 21 52  1  0
 24 53  1  0
 24 54  1  0
 26 55  1  0
 29 56  1  0
 29 57  1  0
 29 58  1  0
 30 59  1  0
 31 60  1  0
M  END
$$$$
[H]c1nc(N([H])[H])c(C(=O)N([H])[C@@]2([H])C([H])([H])C([H])([H])C([H])([H])[C@]2([H])OC([H])([H])c2c([H])c([H])c(C([H])([H])[H])c(C([H])([H])[H])c2[H])c([H])c1-c1c([H])c(C(=O)N2C([H])([H])C([H])([H])C([H])(N3C([H])([H])C([H])([H])C([H])([H])C3([H])[H])C([H])([H])C2([H])[H])c([H])c(N([H])[H])c1[H]
     RDKit          3D

 91 96  0  0  0  0  0  0  0  0999 V2000
  -11.0550   -2.6654   -0.0503 C   0  0  0  0  0  0  0  0  0  0  0  0
  -10.1642   -1.5054    0.1594 C   0  0  0  0  0  0  0  0  0  0  0  0
   -9.0607   -1.6619    0.9799 C   0  0  0  0  0  0  0  0  0  0  0  0
   -8.1959   -0.5960    1.1856 C   0  0  0  0  0  0  0  0  0  0  0  0
   -8.4486    0.6135    0.5666 C   0  0  0  0  0  0  0  0  0  0  0  0
   -7.4611    1.7302    0.7804 C   0  0  0  0  0  0  0  0  0  0  0  0
   -6.4452    1.2668    1.5568 O   0  0  0  0  0  0  0  0  0  0  0  0
   -5.3825    2.0745    1.7830 C   0  0  1  0  0  0  0  0  0  0  0  0
   -5.1089    2.2606    3.2714 C   0  0  0  0  0  0  0  0  0  0  0  0
   -3.6194    2.1733    3.4614 C   0  0  0  0  0  0  0  0  0  0  0  0
   -3.0379    1.9884    2.0741 C   0  0  0  0  0  0  0  0  0  0  0  0
   -4.1294    1.2285    1.3854 C   0  0  2  0  0  0  0  0  0  0  0  0
   -3.9211    1.0390    0.0159 N   0  0  0  0  0  0  0  0  0  0  0  0
   -3.7277    0.8617   -1.2705 C   0  0  0  0  0  0  0  0  0  0  0  0
   -4.6051    1.0794   -2.2195 O   0  0  0  0  0  0  0  0  0  0  0  0
   -2.4444    0.3738   -1.8770 C   0  0  0  0  0  0  0  0  0  0  0  0
   -1.3933    0.1466   -1.0097 C   0  0  0  0  0  0  0  0  0  0  0  0
   -0.2223   -0.2664   -1.5464 C   0  0  0  0  0  0  0  0  0  0  0  0
   -0.1324   -0.4443   -2.9287 C   0  0  0  0  0  0  0  0  0  0  0  0
   -1.1494   -0.2239   -3.7481 N   0  0  0  0  0  0  0  0  0  0  0  0
   -2.3425    0.1962   -3.2260 C   0  0  0  0  0  0  0  0  0  0  0  0
   -3.4549    0.4531   -4.0616 N   0  0  0  0  0  0  0  0  0  0  0  0
    1.0021   -0.5708   -0.7796 C   0  0  0  0  0  0  0  0  0  0  0  0
    0.9790   -1.1129    0.4765 C   0  0  0  0  0  0  0  0  0  0  0  0
    2.1257   -1.3668    1.1829 C   0  0  0  0  0  0  0  0  0  0  0  0
    2.0058   -1.9120    2.4809 N   0  0  0  0  0  0  0  0  0  0  0  0
    3.3486   -1.0541    0.5874 C   0  0  0  0  0  0  0  0  0  0  0  0
    3.4560   -0.5043   -0.6655 C   0  0  0  0  0  0  0  0  0  0  0  0
    2.2336   -0.2826   -1.3127 C   0  0  0  0  0  0  0  0  0  0  0  0
    4.6896   -0.1465   -1.3370 C   0  0  0  0  0  0  0  0  0  0  0  0
    4.5212    0.6084   -2.4105 O   0  0  0  0  0  0  0  0  0  0  0  0
    6.0167   -0.4324   -1.0873 N   0  0  0  0  0  0  0  0  0  0  0  0
    6.4934   -1.3026   -0.0429 C   0  0  0  0  0  0  0  0  0  0  0  0
    7.9636   -1.6343   -0.4276 C   0  0  0  0  0  0  0  0  0  0  0  0
    8.7497   -0.3916   -0.1993 C   0  0  0  0  0  0  0  0  0  0  0  0
    8.1347    0.7566   -0.9793 C   0  0  0  0  0  0  0  0  0  0  0  0
    7.0367    0.2729   -1.8964 C   0  0  0  0  0  0  0  0  0  0  0  0
   10.1286   -0.4327   -0.6406 N   0  0  0  0  0  0  0  0  0  0  0  0
   10.9523   -1.4394   -0.0767 C   0  0  0  0  0  0  0  0  0  0  0  0
   11.4924   -0.9683    1.2481 C   0  0  0  0  0  0  0  0  0  0  0  0
   11.7186    0.5160    0.8997 C   0  0  0  0  0  0  0  0  0  0  0  0
   10.7336    0.8243   -0.1808 C   0  0  0  0  0  0  0  0  0  0  0  0
   -9.5447    0.7588   -0.2443 C   0  0  0  0  0  0  0  0  0  0  0  0
  -10.4220   -0.3142   -0.4552 C   0  0  0  0  0  0  0  0  0  0  0  0
  -11.6101   -0.1365   -1.3320 C   0  0  0  0  0  0  0  0  0  0  0  0
  -12.1124   -2.4111   -0.1336 H   0  0  0  0  0  0  0  0  0  0  0  0
  -10.9402   -3.3712    0.8249 H   0  0  0  0  0  0  0  0  0  0  0  0
  -10.6615   -3.2525   -0.9314 H   0  0  0  0  0  0  0  0  0  0  0  0
   -8.8490   -2.5843    1.4647 H   0  0  0  0  0  0  0  0  0  0  0  0
   -7.3340   -0.7227    1.8250 H   0  0  0  0  0  0  0  0  0  0  0  0
   -7.9740    2.5708    1.3272 H   0  0  0  0  0  0  0  0  0  0  0  0
   -7.2147    2.1455   -0.2065 H   0  0  0  0  0  0  0  0  0  0  0  0
   -5.4068    3.0293    1.2803 H   0  0  0  0  0  0  0  0  0  0  0  0
   -5.6062    1.4111    3.7986 H   0  0  0  0  0  0  0  0  0  0  0  0
   -5.4826    3.2112    3.6509 H   0  0  0  0  0  0  0  0  0  0  0  0
   -3.1470    3.0571    3.8940 H   0  0  0  0  0  0  0  0  0  0  0  0
   -3.3053    1.2973    4.0693 H   0  0  0  0  0  0  0  0  0  0  0  0
   -2.8853    2.9330    1.5294 H   0  0  0  0  0  0  0  0  0  0  0  0
   -2.1084    1.3718    2.1357 H   0  0  0  0  0  0  0  0  0  0  0  0
   -4.3876    0.2491    1.9264 H   0  0  0  0  0  0  0  0  0  0  0  0
   -4.9775    1.8526   -0.2836 H   0  0  0  0  0  0  0  0  0  0  0  0
   -1.4583    0.2837    0.0412 H   0  0  0  0  0  0  0  0  0  0  0  0
    0.7994   -0.7759   -3.3773 H   0  0  0  0  0  0  0  0  0  0  0  0
   -4.2492   -0.1748   -4.2824 H   0  0  0  0  0  0  0  0  0  0  0  0
   -3.4728    1.4142   -4.5214 H   0  0  0  0  0  0  0  0  0  0  0  0
   -0.0080   -1.3262    0.8909 H   0  0  0  0  0  0  0  0  0  0  0  0
    1.1893   -1.7389    3.1146 H   0  0  0  0  0  0  0  0  0  0  0  0
    2.7460   -2.5414    2.9133 H   0  0  0  0  0  0  0  0  0  0  0  0
    4.2241   -1.2569    1.1629 H   0  0  0  0  0  0  0  0  0  0  0  0
    2.2545    0.1340   -2.3150 H   0  0  0  0  0  0  0  0  0  0  0  0
    6.5033   -0.8578    0.9596 H   0  0  0  0  0  0  0  0  0  0  0  0
    6.0025   -2.2726   -0.0050 H   0  0  0  0  0  0  0  0  0  0  0  0
    8.2447   -2.4166    0.2987 H   0  0  0  0  0  0  0  0  0  0  0  0
    8.0052   -1.9428   -1.4556 H   0  0  0  0  0  0  0  0  0  0  0  0
    8.7392   -0.1216    0.8707 H   0  0  0  0  0  0  0  0  0  0  0  0
    8.9305    1.2883   -1.5134 H   0  0  0  0  0  0  0  0  0  0  0  0
    7.6809    1.4545   -0.2626 H   0  0  0  0  0  0  0  0  0  0  0  0
    6.5327    1.0752   -2.4376 H   0  0  0  0  0  0  0  0  0  0  0  0
    7.4592   -0.4407   -2.6149 H   0  0  0  0  0  0  0  0  0  0  0  0
   10.5499   -2.4670   -0.0842 H   0  0  0  0  0  0  0  0  0  0  0  0
   11.8697   -1.4884   -0.7534 H   0  0  0  0  0  0  0  0  0  0  0  0
   10.7686   -1.0330    2.0599 H   0  0  0  0  0  0  0  0  0  0  0  0
   12.4527   -1.4395    1.5362 H   0  0  0  0  0  0  0  0  0  0  0  0
   11.5661    1.0956    1.8407 H   0  0  0  0  0  0  0  0  0  0  0  0
   12.7506    0.6050    0.5399 H   0  0  0  0  0  0  0  0  0  0  0  0
    9.9461    1.5216    0.2337 H   0  0  0  0  0  0  0  0  0  0  0  0
   11.1723    1.3121   -1.0761 H   0  0  0  0  0  0  0  0  0  0  0  0
   -9.7320    1.7049   -0.7190 H   0  0  0  0  0  0  0  0  0  0  0  0
  -12.4312    0.3225   -0.7434 H   0  0  0  0  0  0  0  0  0  0  0  0
  -11.9709   -1.1193   -1.7003 H   0  0  0  0  0  0  0  0  0  0  0  0
  -11.3765    0.5572   -2.1721 H   0  0  0  0  0  0  0  0  0  0  0  0
  1  2  1  0
  2  3  2  0
  3  4  1  0
  4  5  2  0
  5  6  1  0
  6  7  1  0
  7  8  1  0
  8  9  1  0
  9 10  1  0
 10 11  1  0
 11 12  1  0
 12 13  1  0
 13 14  1  0
 14 15  2  0
 14 16  1  0
 16 17  2  0
 17 18  1  0
 18 19  2  0
 19 20  1  0
 20 21  2  0
 21 22  1  0
 18 23  1  0
 23 24  2  0
 24 25  1  0
 25 26  1  0
 25 27  2  0
 27 28  1  0
 28 29  2  0
 28 30  1  0
 30 31  2  0
 30 32  1  0
 32 33  1  0
 33 34  1  0
 34 35  1  0
 35 36  1  0
 36 37  1  0
 35 38  1  0
 38 39  1  0
 39 40  1  0
 40 41  1  0
 41 42  1  0
  5 43  1  0
 43 44  2  0
 44 45  1  0
 44  2  1  0
 12  8  1  0
 21 16  1  0
 29 23  1  0
 37 32  1  0
 42 38  1  0
  1 46  1  0
  1 47  1  0
  1 48  1  0
  3 49  1  0
  4 50  1  0
  6 51  1  0
  6 52  1  0
  8 53  1  6
  9 54  1  0
  9 55  1  0
 10 56  1  0
 10 57  1  0
 11 58  1  0
 11 59  1  0
 12 60  1  1
 13 61  1  0
 17 62  1  0
 19 63  1  0
 22 64  1  0
 22 65  1  0
 24 66  1  0
 26 67  1  0
 26 68  1  0
 27 69  1  0
 29 70  1  0
 33 71  1  0
 33 72  1  0
 34 73  1  0
 34 74  1  0
 35 75  1  0
 36 76  1  0
 36 77  1  0
 37 78  1  0
 37 79  1  0
 39 80  1  0
 39 81  1  0
 40 82  1  0
 40 83  1  0
 41 84  1  0
 41 85  1  0
 42 86  1  0
 42 87  1  0
 43 88  1  0
 45 89  1  0
 45 90  1  0
 45 91  1  0
M  END
$$$$
[H]O[C@]1([H])C([H])([H])C([H])([H])[C@@]([H])(n2c([H])c(-c3c([H])c([H])c(S(=O)(=O)N4C([H])([H])C([H])([H])OC([H])([H])C4([H])[H])c(F)c3[H])c3c([H])nc(N([H])C([H])([H])C([H])([H])C([H])([H])C([H])([H])[H])nc32)C([H])([H])C1([H])[H]
     RDKit          3D

 71 75  0  0  0  0  0  0  0  0999 V2000
   -7.4320   -1.5448    1.3096 C   0  0  0  0  0  0  0  0  0  0  0  0
   -7.3902   -3.0137    1.1659 C   0  0  0  0  0  0  0  0  0  0  0  0
   -6.8113   -3.5301   -0.0860 C   0  0  0  0  0  0  0  0  0  0  0  0
   -5.3877   -3.1513   -0.2950 C   0  0  0  0  0  0  0  0  0  0  0  0
   -5.0923   -1.7731   -0.4591 N   0  0  0  0  0  0  0  0  0  0  0  0
   -3.7061   -1.3802   -0.4682 C   0  0  0  0  0  0  0  0  0  0  0  0
   -2.7292   -2.2860   -0.3266 N   0  0  0  0  0  0  0  0  0  0  0  0
   -1.4249   -1.9722   -0.3259 C   0  0  0  0  0  0  0  0  0  0  0  0
   -1.0690   -0.6492   -0.4785 C   0  0  0  0  0  0  0  0  0  0  0  0
    0.1575   -0.0232   -0.5187 C   0  0  0  0  0  0  0  0  0  0  0  0
   -0.1067    1.3041   -0.6911 C   0  0  0  0  0  0  0  0  0  0  0  0
   -1.4433    1.5139   -0.7576 N   0  0  0  0  0  0  0  0  0  0  0  0
   -2.1424    2.7488   -0.9320 C   0  0  1  0  0  0  0  0  0  0  0  0
   -3.0346    2.9546    0.2705 C   0  0  0  0  0  0  0  0  0  0  0  0
   -2.6320    4.2377    0.9418 C   0  0  0  0  0  0  0  0  0  0  0  0
   -2.9187    5.3641   -0.0430 C   0  0  2  0  0  0  0  0  0  0  0  0
   -4.1997    5.1172   -0.5491 O   0  0  0  0  0  0  0  0  0  0  0  0
   -1.9271    5.2201   -1.1753 C   0  0  0  0  0  0  0  0  0  0  0  0
   -1.2225    3.9059   -1.1784 C   0  0  0  0  0  0  0  0  0  0  0  0
   -2.0639    0.3049   -0.6267 C   0  0  0  0  0  0  0  0  0  0  0  0
   -3.3305   -0.0996   -0.6151 N   0  0  0  0  0  0  0  0  0  0  0  0
    1.4969   -0.6031   -0.4039 C   0  0  0  0  0  0  0  0  0  0  0  0
    1.8010   -1.5299    0.5706 C   0  0  0  0  0  0  0  0  0  0  0  0
    3.0487   -2.0822    0.6886 C   0  0  0  0  0  0  0  0  0  0  0  0
    4.1066   -1.7391   -0.1799 C   0  0  0  0  0  0  0  0  0  0  0  0
    3.7894   -0.8224   -1.1390 C   0  0  0  0  0  0  0  0  0  0  0  0
    4.7355   -0.4672   -2.0523 F   0  0  0  0  0  0  0  0  0  0  0  0
    2.5158   -0.2568   -1.2604 C   0  0  0  0  0  0  0  0  0  0  0  0
    5.6803   -2.4496    0.0729 S   0  0  0  0  0  0  0  0  0  0  0  0
    5.5607   -3.7038    0.9215 O   0  0  0  0  0  0  0  0  0  0  0  0
    6.2387   -2.9506   -1.2672 O   0  0  0  0  0  0  0  0  0  0  0  0
    6.8211   -1.3866    0.7046 N   0  0  0  0  0  0  0  0  0  0  0  0
    7.1605   -0.2603   -0.0549 C   0  0  0  0  0  0  0  0  0  0  0  0
    8.3990    0.3742    0.6114 C   0  0  0  0  0  0  0  0  0  0  0  0
    9.4850   -0.4631    0.5336 O   0  0  0  0  0  0  0  0  0  0  0  0
    9.2420   -1.7666    0.8916 C   0  0  0  0  0  0  0  0  0  0  0  0
    7.8726   -1.9883    1.4665 C   0  0  0  0  0  0  0  0  0  0  0  0
   -6.4556   -1.1215    1.6412 H   0  0  0  0  0  0  0  0  0  0  0  0
   -7.8688   -1.0805    0.4240 H   0  0  0  0  0  0  0  0  0  0  0  0
   -8.1324   -1.2907    2.1559 H   0  0  0  0  0  0  0  0  0  0  0  0
   -6.8058   -3.4952    2.0176 H   0  0  0  0  0  0  0  0  0  0  0  0
   -8.4486   -3.3887    1.2453 H   0  0  0  0  0  0  0  0  0  0  0  0
   -6.9463   -4.6568   -0.1466 H   0  0  0  0  0  0  0  0  0  0  0  0
   -7.3790   -3.1463   -0.9800 H   0  0  0  0  0  0  0  0  0  0  0  0
   -4.7242   -3.5899    0.5286 H   0  0  0  0  0  0  0  0  0  0  0  0
   -5.0450   -3.7553   -1.1987 H   0  0  0  0  0  0  0  0  0  0  0  0
   -5.7643   -1.0189   -0.5974 H   0  0  0  0  0  0  0  0  0  0  0  0
   -0.6513   -2.7486   -0.2078 H   0  0  0  0  0  0  0  0  0  0  0  0
    0.6172    2.1156   -0.7696 H   0  0  0  0  0  0  0  0  0  0  0  0
   -2.7655    2.6357   -1.8618 H   0  0  0  0  0  0  0  0  0  0  0  0
   -2.9062    2.1374    1.0263 H   0  0  0  0  0  0  0  0  0  0  0  0
   -4.0800    2.9337   -0.0509 H   0  0  0  0  0  0  0  0  0  0  0  0
   -1.5512    4.1660    1.1789 H   0  0  0  0  0  0  0  0  0  0  0  0
   -3.2683    4.3507    1.8479 H   0  0  0  0  0  0  0  0  0  0  0  0
   -2.8401    6.3095    0.4984 H   0  0  0  0  0  0  0  0  0  0  0  0
   -4.3993    5.7673   -1.2601 H   0  0  0  0  0  0  0  0  0  0  0  0
   -1.1536    6.0145   -1.0239 H   0  0  0  0  0  0  0  0  0  0  0  0
   -2.4270    5.3602   -2.1556 H   0  0  0  0  0  0  0  0  0  0  0  0
   -0.3615    3.9353   -0.4648 H   0  0  0  0  0  0  0  0  0  0  0  0
   -0.7682    3.7720   -2.1886 H   0  0  0  0  0  0  0  0  0  0  0  0
    0.9877   -1.8077    1.2577 H   0  0  0  0  0  0  0  0  0  0  0  0
    3.2847   -2.8128    1.4583 H   0  0  0  0  0  0  0  0  0  0  0  0
    2.3154    0.4701   -2.0410 H   0  0  0  0  0  0  0  0  0  0  0  0
    6.4025    0.5354   -0.0003 H   0  0  0  0  0  0  0  0  0  0  0  0
    7.3993   -0.4515   -1.1313 H   0  0  0  0  0  0  0  0  0  0  0  0
    8.0999    0.5993    1.6437 H   0  0  0  0  0  0  0  0  0  0  0  0
    8.6142    1.3130    0.0725 H   0  0  0  0  0  0  0  0  0  0  0  0
    9.4256   -2.4118    0.0023 H   0  0  0  0  0  0  0  0  0  0  0  0
    9.9732   -2.1394    1.6664 H   0  0  0  0  0  0  0  0  0  0  0  0
    7.6985   -3.0927    1.5163 H   0  0  0  0  0  0  0  0  0  0  0  0
    7.8765   -1.5599    2.4977 H   0  0  0  0  0  0  0  0  0  0  0  0
  1  2  1  0
  2  3  1  0
  3  4  1  0
  4  5  1  0
  5  6  1  0
  6  7  2  0
  7  8  1  0
  8  9  2  0
  9 10  1  0
 10 11  2  0
 11 12  1  0
 12 13  1  0
 13 14  1  0
 14 15  1  0
 15 16  1  0
 16 17  1  0
 16 18  1  0
 18 19  1  0
 12 20  1  0
 20 21  2  0
 10 22  1  0
 22 23  2  0
 23 24  1  0
 24 25  2  0
 25 26  1  0
 26 27  1  0
 26 28  2  0
 25 29  1  0
 29 30  2  0
 29 31  2  0
 29 32  1  0
 32 33  1  0
 33 34  1  0
 34 35  1  0
 35 36  1  0
 36 37  1  0
 21  6  1  0
 28 22  1  0
 37 32  1  0
 20  9  1  0
 19 13  1  0
  1 38  1  0
  1 39  1  0
  1 40  1  0
  2 41  1  0
  2 42  1  0
  3 43  1  0
  3 44  1  0
  4 45  1  0
  4 46  1  0
  5 47  1  0
  8 48  1  0
 11 49  1  0
 13 50  1  6
 14 51  1  0
 14 52  1  0
 15 53  1  0
 15 54  1  0
 16 55  1  1
 17 56  1  0
 18 57  1  0
 18 58  1  0
 19 59  1  0
 19 60  1  0
 23 61  1  0
 24 62  1  0
 28 63  1  0
 33 64  1  0
 33 65  1  0
 34 66  1  0
 34 67  1  0
 36 68  1  0
 36 69  1  0
 37 70  1  0
 37 71  1  0
M  END
$$$$
[H]O[C@]1([H])C([H])([H])C([H])([H])[C@@]([H])(n2c([H])c(-c3c([H])c([H])c(S(=O)(=O)N4C([H])([H])C([H])([H])N(C([H])([H])[H])C([H])([H])C4([H])[H])c(F)c3[H])c3c([H])nc(N([H])C([H])([H])C([H])([H])C([H])([H])C([H])([H])[H])nc32)C([H])([H])C1([H])[H]
     RDKit          3D

 75 79  0  0  0  0  0  0  0  0999 V2000
   -6.4731   -6.0634    0.4187 C   0  0  0  0  0  0  0  0  0  0  0  0
   -6.9230   -5.4210   -0.8879 C   0  0  0  0  0  0  0  0  0  0  0  0
   -6.6933   -3.9352   -0.8130 C   0  0  0  0  0  0  0  0  0  0  0  0
   -5.2417   -3.5958   -0.5945 C   0  0  0  0  0  0  0  0  0  0  0  0
   -5.0958   -2.1650   -0.5332 N   0  0  0  0  0  0  0  0  0  0  0  0
   -3.8431   -1.5178   -0.3347 C   0  0  0  0  0  0  0  0  0  0  0  0
   -2.7597   -2.3281   -0.2017 N   0  0  0  0  0  0  0  0  0  0  0  0
   -1.5473   -1.7839   -0.0120 C   0  0  0  0  0  0  0  0  0  0  0  0
   -1.4252   -0.4065    0.0441 C   0  0  0  0  0  0  0  0  0  0  0  0
   -0.3642    0.4545    0.2218 C   0  0  0  0  0  0  0  0  0  0  0  0
   -0.8483    1.7390    0.1890 C   0  0  0  0  0  0  0  0  0  0  0  0
   -2.1760    1.6740   -0.0043 N   0  0  0  0  0  0  0  0  0  0  0  0
   -2.9905    2.8658   -0.0873 C   0  0  1  0  0  0  0  0  0  0  0  0
   -4.4480    2.5907   -0.2429 C   0  0  0  0  0  0  0  0  0  0  0  0
   -5.2025    3.8783   -0.3445 C   0  0  0  0  0  0  0  0  0  0  0  0
   -4.4413    5.0846    0.0905 C   0  0  2  0  0  0  0  0  0  0  0  0
   -3.7476    5.6200   -0.9890 O   0  0  0  0  0  0  0  0  0  0  0  0
   -3.5837    4.8721    1.3020 C   0  0  0  0  0  0  0  0  0  0  0  0
   -2.7004    3.6766    1.1665 C   0  0  0  0  0  0  0  0  0  0  0  0
   -2.5410    0.3830   -0.0941 C   0  0  0  0  0  0  0  0  0  0  0  0
   -3.7220   -0.1834   -0.2798 N   0  0  0  0  0  0  0  0  0  0  0  0
    1.0232    0.0233    0.4053 C   0  0  0  0  0  0  0  0  0  0  0  0
    1.7742    0.5985    1.4161 C   0  0  0  0  0  0  0  0  0  0  0  0
    3.0845    0.2288    1.6266 C   0  0  0  0  0  0  0  0  0  0  0  0
    3.7075   -0.7266    0.8451 C   0  0  0  0  0  0  0  0  0  0  0  0
    2.9652   -1.3033   -0.1632 C   0  0  0  0  0  0  0  0  0  0  0  0
    3.5550   -2.2399   -0.9395 F   0  0  0  0  0  0  0  0  0  0  0  0
    1.6354   -0.9297   -0.3787 C   0  0  0  0  0  0  0  0  0  0  0  0
    5.3826   -1.1850    1.1302 S   0  0  0  0  0  0  0  0  0  0  0  0
    5.4833   -2.6470    1.4274 O   0  0  0  0  0  0  0  0  0  0  0  0
    5.8798   -0.4263    2.3197 O   0  0  0  0  0  0  0  0  0  0  0  0
    6.2673   -0.8414   -0.2968 N   0  0  0  0  0  0  0  0  0  0  0  0
    6.2786    0.5201   -0.6671 C   0  0  0  0  0  0  0  0  0  0  0  0
    7.5454    1.2663   -0.4203 C   0  0  0  0  0  0  0  0  0  0  0  0
    8.7311    0.4517   -0.4455 N   0  0  0  0  0  0  0  0  0  0  0  0
    9.8613    1.1351   -1.0055 C   0  0  0  0  0  0  0  0  0  0  0  0
    8.4644   -0.7459   -1.2308 C   0  0  0  0  0  0  0  0  0  0  0  0
    7.4809   -1.5588   -0.4156 C   0  0  0  0  0  0  0  0  0  0  0  0
   -7.1417   -6.9206    0.6654 H   0  0  0  0  0  0  0  0  0  0  0  0
   -6.4497   -5.3415    1.2427 H   0  0  0  0  0  0  0  0  0  0  0  0
   -5.4604   -6.4543    0.2427 H   0  0  0  0  0  0  0  0  0  0  0  0
   -6.3577   -5.8093   -1.7553 H   0  0  0  0  0  0  0  0  0  0  0  0
   -8.0164   -5.5787   -1.0071 H   0  0  0  0  0  0  0  0  0  0  0  0
   -7.0064   -3.4639   -1.7684 H   0  0  0  0  0  0  0  0  0  0  0  0
   -7.2516   -3.4959    0.0614 H   0  0  0  0  0  0  0  0  0  0  0  0
   -4.9153   -4.0880    0.3561 H   0  0  0  0  0  0  0  0  0  0  0  0
   -4.5980   -4.0461   -1.3926 H   0  0  0  0  0  0  0  0  0  0  0  0
   -5.9349   -1.5633   -0.6371 H   0  0  0  0  0  0  0  0  0  0  0  0
   -0.6824   -2.4272    0.0958 H   0  0  0  0  0  0  0  0  0  0  0  0
   -0.2389    2.6329    0.3026 H   0  0  0  0  0  0  0  0  0  0  0  0
   -2.6512    3.4126   -0.9999 H   0  0  0  0  0  0  0  0  0  0  0  0
   -4.8534    1.9767    0.5922 H   0  0  0  0  0  0  0  0  0  0  0  0
   -4.5765    2.0669   -1.2307 H   0  0  0  0  0  0  0  0  0  0  0  0
   -5.5682    4.0840   -1.3907 H   0  0  0  0  0  0  0  0  0  0  0  0
   -6.1252    3.8068    0.2672 H   0  0  0  0  0  0  0  0  0  0  0  0
   -5.2044    5.8659    0.3767 H   0  0  0  0  0  0  0  0  0  0  0  0
   -3.5211    6.5768   -0.8695 H   0  0  0  0  0  0  0  0  0  0  0  0
   -4.2189    4.8405    2.2064 H   0  0  0  0  0  0  0  0  0  0  0  0
   -2.9311    5.7654    1.4153 H   0  0  0  0  0  0  0  0  0  0  0  0
   -1.6091    3.9559    1.0850 H   0  0  0  0  0  0  0  0  0  0  0  0
   -2.8724    3.0023    2.0241 H   0  0  0  0  0  0  0  0  0  0  0  0
    1.2823    1.3568    2.0375 H   0  0  0  0  0  0  0  0  0  0  0  0
    3.6750    0.6803    2.4207 H   0  0  0  0  0  0  0  0  0  0  0  0
    1.0498   -1.3766   -1.1684 H   0  0  0  0  0  0  0  0  0  0  0  0
    5.9563    0.6027   -1.7362 H   0  0  0  0  0  0  0  0  0  0  0  0
    5.4682    1.0461   -0.0909 H   0  0  0  0  0  0  0  0  0  0  0  0
    7.6588    2.0202   -1.2441 H   0  0  0  0  0  0  0  0  0  0  0  0
    7.5348    1.8515    0.5225 H   0  0  0  0  0  0  0  0  0  0  0  0
   10.8322    0.7206   -0.6253 H   0  0  0  0  0  0  0  0  0  0  0  0
    9.8985    1.0714   -2.1111 H   0  0  0  0  0  0  0  0  0  0  0  0
    9.8432    2.2344   -0.7735 H   0  0  0  0  0  0  0  0  0  0  0  0
    7.9835   -0.4154   -2.1687 H   0  0  0  0  0  0  0  0  0  0  0  0
    9.4122   -1.2893   -1.4195 H   0  0  0  0  0  0  0  0  0  0  0  0
    7.9399   -1.8524    0.5497 H   0  0  0  0  0  0  0  0  0  0  0  0
    7.2983   -2.5069   -0.9823 H   0  0  0  0  0  0  0  0  0  0  0  0
  1  2  1  0
  2  3  1  0
  3  4  1  0
  4  5  1  0
  5  6  1  0
  6  7  2  0
  7  8  1  0
  8  9  2  0
  9 10  1  0
 10 11  2  0
 11 12  1  0
 12 13  1  0
 13 14  1  0
 14 15  1  0
 15 16  1  0
 16 17  1  0
 16 18  1  0
 18 19  1  0
 12 20  1  0
 20 21  2  0
 10 22  1  0
 22 23  2  0
 23 24  1  0
 24 25  2  0
 25 26  1  0
 26 27  1  0
 26 28  2  0
 25 29  1  0
 29 30  2  0
 29 31  2  0
 29 32  1  0
 32 33  1  0
 33 34  1  0
 34 35  1  0
 35 36  1  0
 35 37  1  0
 37 38  1  0
 21  6  1  0
 28 22  1  0
 38 32  1  0
 20  9  1  0
 19 13  1  0
  1 39  1  0
  1 40  1  0
  1 41  1  0
  2 42  1  0
  2 43  1  0
  3 44  1  0
  3 45  1  0
  4 46  1  0
  4 47  1  0
  5 48  1  0
  8 49  1  0
 11 50  1  0
 13 51  1  6
 14 52  1  0
 14 53  1  0
 15 54  1  0
 15 55  1  0
 16 56  1  1
 17 57  1  0
 18 58  1  0
 18 59  1  0
 19 60  1  0
 19 61  1  0
 23 62  1  0
 24 63  1  0
 28 64  1  0
 33 65  1  0
 33 66  1  0
 34 67  1  0
 34 68  1  0
 36 69  1  0
 36 70  1  0
 36 71  1  0
 37 72  1  0
 37 73  1  0
 38 74  1  0
 38 75  1  0
M  END
$$$$
[H]O[C@]1([H])C([H])([H])C([H])([H])[C@@]([H])(C([H])([H])n2nc(-c3c([H])c([H])c(S(=O)(=O)N([H])C(=O)C([H])([H])[H])c([H])c3[H])c3c([H])nc(N([H])C([H])([H])C([H])([H])C([H])([H])C([H])([H])[H])nc32)C([H])([H])C1([H])[H]
     RDKit          3D

 67 70  0  0  0  0  0  0  0  0999 V2000
   -4.7711    4.8335   -1.2116 C   0  0  0  0  0  0  0  0  0  0  0  0
   -4.7103    4.1676    0.1427 C   0  0  0  0  0  0  0  0  0  0  0  0
   -3.5175    4.7129    0.9038 C   0  0  0  0  0  0  0  0  0  0  0  0
   -3.4153    4.0721    2.2723 C   0  0  0  0  0  0  0  0  0  0  0  0
   -3.2564    2.6581    2.2186 N   0  0  0  0  0  0  0  0  0  0  0  0
   -2.1327    1.9704    1.7300 C   0  0  0  0  0  0  0  0  0  0  0  0
   -1.0585    2.6204    1.2685 N   0  0  0  0  0  0  0  0  0  0  0  0
    0.0537    2.0033    0.8038 C   0  0  0  0  0  0  0  0  0  0  0  0
    0.0596    0.6266    0.8155 C   0  0  0  0  0  0  0  0  0  0  0  0
    0.9999   -0.2798    0.4373 C   0  0  0  0  0  0  0  0  0  0  0  0
    0.4487   -1.5065    0.6870 N   0  0  0  0  0  0  0  0  0  0  0  0
   -0.7627   -1.3775    1.1905 N   0  0  0  0  0  0  0  0  0  0  0  0
   -1.6064   -2.5269    1.5271 C   0  0  0  0  0  0  0  0  0  0  0  0
   -2.4078   -2.9705    0.2972 C   0  0  1  0  0  0  0  0  0  0  0  0
   -1.4926   -3.3560   -0.8281 C   0  0  0  0  0  0  0  0  0  0  0  0
   -2.3447   -3.8679   -1.9845 C   0  0  0  0  0  0  0  0  0  0  0  0
   -2.9454   -5.1750   -1.5255 C   0  0  2  0  0  0  0  0  0  0  0  0
   -3.6944   -5.7842   -2.5214 O   0  0  0  0  0  0  0  0  0  0  0  0
   -3.8867   -4.9099   -0.3542 C   0  0  0  0  0  0  0  0  0  0  0  0
   -3.1693   -4.1920    0.7389 C   0  0  0  0  0  0  0  0  0  0  0  0
   -1.0348   -0.0696    1.2846 C   0  0  0  0  0  0  0  0  0  0  0  0
   -2.1019    0.6166    1.7294 N   0  0  0  0  0  0  0  0  0  0  0  0
    2.3381   -0.1444   -0.1251 C   0  0  0  0  0  0  0  0  0  0  0  0
    2.6674    0.6729   -1.1779 C   0  0  0  0  0  0  0  0  0  0  0  0
    3.9542    0.7417   -1.6848 C   0  0  0  0  0  0  0  0  0  0  0  0
    4.9765   -0.0152   -1.1507 C   0  0  0  0  0  0  0  0  0  0  0  0
    4.6647   -0.8379   -0.0949 C   0  0  0  0  0  0  0  0  0  0  0  0
    3.3901   -0.9065    0.4083 C   0  0  0  0  0  0  0  0  0  0  0  0
    6.5784    0.0771   -1.8471 S   0  0  0  0  0  0  0  0  0  0  0  0
    6.4404    0.2353   -3.3495 O   0  0  0  0  0  0  0  0  0  0  0  0
    7.2357   -1.2517   -1.5783 O   0  0  0  0  0  0  0  0  0  0  0  0
    7.4085    1.3951   -1.1353 N   0  0  0  0  0  0  0  0  0  0  0  0
    7.9106    1.3087    0.1729 C   0  0  0  0  0  0  0  0  0  0  0  0
    8.6274    2.4670    0.7602 C   0  0  0  0  0  0  0  0  0  0  0  0
    7.7378    0.2334    0.8279 O   0  0  0  0  0  0  0  0  0  0  0  0
   -4.8210    4.0444   -2.0192 H   0  0  0  0  0  0  0  0  0  0  0  0
   -3.8829    5.4623   -1.4154 H   0  0  0  0  0  0  0  0  0  0  0  0
   -5.6896    5.4786   -1.2938 H   0  0  0  0  0  0  0  0  0  0  0  0
   -5.6243    4.4352    0.7121 H   0  0  0  0  0  0  0  0  0  0  0  0
   -4.5853    3.0862   -0.0031 H   0  0  0  0  0  0  0  0  0  0  0  0
   -2.5934    4.6422    0.3086 H   0  0  0  0  0  0  0  0  0  0  0  0
   -3.7282    5.7896    1.0662 H   0  0  0  0  0  0  0  0  0  0  0  0
   -2.5528    4.5470    2.7761 H   0  0  0  0  0  0  0  0  0  0  0  0
   -4.3351    4.3390    2.8151 H   0  0  0  0  0  0  0  0  0  0  0  0
   -4.0633    2.0728    2.5837 H   0  0  0  0  0  0  0  0  0  0  0  0
    0.9272    2.5087    0.4281 H   0  0  0  0  0  0  0  0  0  0  0  0
   -2.2854   -2.2118    2.3417 H   0  0  0  0  0  0  0  0  0  0  0  0
   -1.0444   -3.3966    1.8679 H   0  0  0  0  0  0  0  0  0  0  0  0
   -3.0507   -2.1457   -0.0037 H   0  0  0  0  0  0  0  0  0  0  0  0
   -0.8350   -4.2169   -0.5326 H   0  0  0  0  0  0  0  0  0  0  0  0
   -0.8549   -2.5391   -1.2113 H   0  0  0  0  0  0  0  0  0  0  0  0
   -3.1613   -3.1598   -2.2221 H   0  0  0  0  0  0  0  0  0  0  0  0
   -1.7094   -4.0962   -2.8790 H   0  0  0  0  0  0  0  0  0  0  0  0
   -2.1465   -5.8780   -1.1938 H   0  0  0  0  0  0  0  0  0  0  0  0
   -4.4518   -6.2878   -2.1439 H   0  0  0  0  0  0  0  0  0  0  0  0
   -4.7281   -4.2873   -0.7351 H   0  0  0  0  0  0  0  0  0  0  0  0
   -4.2173   -5.8933    0.0254 H   0  0  0  0  0  0  0  0  0  0  0  0
   -2.4051   -4.8798    1.2076 H   0  0  0  0  0  0  0  0  0  0  0  0
   -3.8822   -3.8471    1.5164 H   0  0  0  0  0  0  0  0  0  0  0  0
    1.8525    1.2726   -1.6005 H   0  0  0  0  0  0  0  0  0  0  0  0
    4.1335    1.4182   -2.5308 H   0  0  0  0  0  0  0  0  0  0  0  0
    5.4513   -1.4375    0.3338 H   0  0  0  0  0  0  0  0  0  0  0  0
    3.1569   -1.5593    1.2431 H   0  0  0  0  0  0  0  0  0  0  0  0
    7.5122    2.2511   -1.7359 H   0  0  0  0  0  0  0  0  0  0  0  0
    9.7167    2.2434    0.7512 H   0  0  0  0  0  0  0  0  0  0  0  0
    8.4633    3.3407    0.1054 H   0  0  0  0  0  0  0  0  0  0  0  0
    8.2514    2.6630    1.7901 H   0  0  0  0  0  0  0  0  0  0  0  0
  1  2  1  0
  2  3  1  0
  3  4  1  0
  4  5  1  0
  5  6  1  0
  6  7  2  0
  7  8  1  0
  8  9  2  0
  9 10  1  0
 10 11  2  0
 11 12  1  0
 12 13  1  0
 13 14  1  0
 14 15  1  0
 15 16  1  0
 16 17  1  0
 17 18  1  0
 17 19  1  0
 19 20  1  0
 12 21  1  0
 21 22  2  0
 10 23  1  0
 23 24  2  0
 24 25  1  0
 25 26  2  0
 26 27  1  0
 27 28  2  0
 26 29  1  0
 29 30  2  0
 29 31  2  0
 29 32  1  0
 32 33  1  0
 33 34  1  0
 33 35  2  0
 22  6  1  0
 28 23  1  0
 21  9  1  0
 20 14  1  0
  1 36  1  0
  1 37  1  0
  1 38  1  0
  2 39  1  0
  2 40  1  0
  3 41  1  0
  3 42  1  0
  4 43  1  0
  4 44  1  0
  5 45  1  0
  8 46  1  0
 13 47  1  0
 13 48  1  0
 14 49  1  6
 15 50  1  0
 15 51  1  0
 16 52  1  0
 16 53  1  0
 17 54  1  1
 18 55  1  0
 19 56  1  0
 19 57  1  0
 20 58  1  0
 20 59  1  0
 24 60  1  0
 25 61  1  0
 27 62  1  0
 28 63  1  0
 32 64  1  0
 34 65  1  0
 34 66  1  0
 34 67  1  0
M  END
$$$$
[H]C(=O)c1c([H])c([H])c(-c2c([H])nc(N([H])[H])c(C(=O)N([H])[C@@]3([H])C([H])([H])C([H])([H])C([H])([H])[C@]3([H])OC([H])([H])c3c([H])c([H])c(C([H])([H])[H])c(C([H])([H])[H])c3[H])c2[H])c([H])c1[H]
     RDKit          3D

 62 65  0  0  0  0  0  0  0  0999 V2000
    4.5719   -0.2379    4.8881 C   0  0  0  0  0  0  0  0  0  0  0  0
    4.0580   -0.4958    3.4956 C   0  0  0  0  0  0  0  0  0  0  0  0
    4.8643   -0.4029    2.3817 C   0  0  0  0  0  0  0  0  0  0  0  0
    4.3947   -0.6361    1.1135 C   0  0  0  0  0  0  0  0  0  0  0  0
    3.0823   -0.9749    0.9143 C   0  0  0  0  0  0  0  0  0  0  0  0
    2.5456   -1.2325   -0.4286 C   0  0  0  0  0  0  0  0  0  0  0  0
    2.9492   -0.3197   -1.3945 O   0  0  0  0  0  0  0  0  0  0  0  0
    2.5479    0.9720   -1.0767 C   0  0  1  0  0  0  0  0  0  0  0  0
    3.6919    1.9529   -1.1226 C   0  0  0  0  0  0  0  0  0  0  0  0
    3.1489    3.2356   -1.7462 C   0  0  0  0  0  0  0  0  0  0  0  0
    1.6337    2.9963   -1.8021 C   0  0  0  0  0  0  0  0  0  0  0  0
    1.6265    1.5282   -2.1775 C   0  0  2  0  0  0  0  0  0  0  0  0
    0.3134    0.9485   -2.0748 N   0  0  0  0  0  0  0  0  0  0  0  0
   -0.3289    0.2116   -3.0788 C   0  0  0  0  0  0  0  0  0  0  0  0
    0.3310    0.0570   -4.1581 O   0  0  0  0  0  0  0  0  0  0  0  0
   -1.6372   -0.3726   -2.9989 C   0  0  0  0  0  0  0  0  0  0  0  0
   -2.4069   -0.2244   -1.8383 C   0  0  0  0  0  0  0  0  0  0  0  0
   -3.6683   -0.7752   -1.7341 C   0  0  0  0  0  0  0  0  0  0  0  0
   -4.1158   -1.4780   -2.8466 C   0  0  0  0  0  0  0  0  0  0  0  0
   -3.3592   -1.6081   -3.9527 N   0  0  0  0  0  0  0  0  0  0  0  0
   -2.1306   -1.0819   -4.0772 C   0  0  0  0  0  0  0  0  0  0  0  0
   -1.3882   -1.2617   -5.2826 N   0  0  0  0  0  0  0  0  0  0  0  0
   -4.5181   -0.6552   -0.5540 C   0  0  0  0  0  0  0  0  0  0  0  0
   -4.4806    0.4590    0.2574 C   0  0  0  0  0  0  0  0  0  0  0  0
   -5.2916    0.5724    1.3796 C   0  0  0  0  0  0  0  0  0  0  0  0
   -6.1742   -0.4308    1.7317 C   0  0  0  0  0  0  0  0  0  0  0  0
   -7.0200   -0.2969    2.9128 C   0  0  0  0  0  0  0  0  0  0  0  0
   -6.9615    0.7290    3.6318 O   0  0  0  0  0  0  0  0  0  0  0  0
   -6.2133   -1.5458    0.9215 C   0  0  0  0  0  0  0  0  0  0  0  0
   -5.4038   -1.6551   -0.1952 C   0  0  0  0  0  0  0  0  0  0  0  0
    2.2574   -1.0727    2.0235 C   0  0  0  0  0  0  0  0  0  0  0  0
    2.7323   -0.8381    3.2935 C   0  0  0  0  0  0  0  0  0  0  0  0
    1.8436   -0.9438    4.4946 C   0  0  0  0  0  0  0  0  0  0  0  0
    4.1668   -1.0690    5.5019 H   0  0  0  0  0  0  0  0  0  0  0  0
    4.1967    0.7438    5.1997 H   0  0  0  0  0  0  0  0  0  0  0  0
    5.6769   -0.2395    4.9100 H   0  0  0  0  0  0  0  0  0  0  0  0
    5.9108   -0.1316    2.5588 H   0  0  0  0  0  0  0  0  0  0  0  0
    5.0451   -0.5558    0.2633 H   0  0  0  0  0  0  0  0  0  0  0  0
    1.4275   -1.3143   -0.3922 H   0  0  0  0  0  0  0  0  0  0  0  0
    2.9084   -2.2544   -0.7231 H   0  0  0  0  0  0  0  0  0  0  0  0
    1.9978    1.0711   -0.1434 H   0  0  0  0  0  0  0  0  0  0  0  0
    4.0541    2.2286   -0.1108 H   0  0  0  0  0  0  0  0  0  0  0  0
    4.4758    1.5162   -1.7564 H   0  0  0  0  0  0  0  0  0  0  0  0
    3.4762    3.2927   -2.8154 H   0  0  0  0  0  0  0  0  0  0  0  0
    3.3886    4.1304   -1.1731 H   0  0  0  0  0  0  0  0  0  0  0  0
    1.1464    3.6518   -2.5207 H   0  0  0  0  0  0  0  0  0  0  0  0
    1.2022    3.1012   -0.7719 H   0  0  0  0  0  0  0  0  0  0  0  0
    2.0887    1.4105   -3.1610 H   0  0  0  0  0  0  0  0  0  0  0  0
   -0.1845    1.1067   -1.1672 H   0  0  0  0  0  0  0  0  0  0  0  0
   -2.0474    0.3254   -0.9820 H   0  0  0  0  0  0  0  0  0  0  0  0
   -5.1035   -1.9182   -2.7813 H   0  0  0  0  0  0  0  0  0  0  0  0
   -1.5730   -0.7578   -6.1632 H   0  0  0  0  0  0  0  0  0  0  0  0
   -0.6088   -1.9460   -5.2739 H   0  0  0  0  0  0  0  0  0  0  0  0
   -3.7898    1.2612   -0.0053 H   0  0  0  0  0  0  0  0  0  0  0  0
   -5.2642    1.4545    2.0249 H   0  0  0  0  0  0  0  0  0  0  0  0
   -7.7113   -1.0701    3.1950 H   0  0  0  0  0  0  0  0  0  0  0  0
   -6.9133   -2.3465    1.1969 H   0  0  0  0  0  0  0  0  0  0  0  0
   -5.4441   -2.5320   -0.8184 H   0  0  0  0  0  0  0  0  0  0  0  0
    1.2098   -1.3368    1.9284 H   0  0  0  0  0  0  0  0  0  0  0  0
    2.0465   -0.1402    5.2276 H   0  0  0  0  0  0  0  0  0  0  0  0
    1.9275   -1.9562    4.9311 H   0  0  0  0  0  0  0  0  0  0  0  0
    0.7995   -0.8482    4.1112 H   0  0  0  0  0  0  0  0  0  0  0  0
  1  2  1  0
  2  3  2  0
  3  4  1  0
  4  5  2  0
  5  6  1  0
  6  7  1  0
  7  8  1  0
  8  9  1  0
  9 10  1  0
 10 11  1  0
 11 12  1  0
 12 13  1  0
 13 14  1  0
 14 15  2  0
 14 16  1  0
 16 17  2  0
 17 18  1  0
 18 19  2  0
 19 20  1  0
 20 21  2  0
 21 22  1  0
 18 23  1  0
 23 24  2  0
 24 25  1  0
 25 26  2  0
 26 27  1  0
 27 28  2  0
 26 29  1  0
 29 30  2  0
  5 31  1  0
 31 32  2  0
 32 33  1  0
 32  2  1  0
 12  8  1  0
 21 16  1  0
 30 23  1  0
  1 34  1  0
  1 35  1  0
  1 36  1  0
  3 37  1  0
  4 38  1  0
  6 39  1  0
  6 40  1  0
  8 41  1  1
  9 42  1  0
  9 43  1  0
 10 44  1  0
 10 45  1  0
 11 46  1  0
 11 47  1  0
 12 48  1  6
 13 49  1  0
 17 50  1  0
 19 51  1  0
 22 52  1  0
 22 53  1  0
 24 54  1  0
 25 55  1  0
 27 56  1  0
 29 57  1  0
 30 58  1  0
 31 59  1  0
 33 60  1  0
 33 61  1  0
 33 62  1  0
M  END
$$$$
[H]c1nc(N([H])[H])c(C(=O)N([H])[C@@]2([H])C([H])([H])C([H])([H])C([H])([H])[C@]2([H])OC([H])([H])c2c([H])c([H])c([H])c([H])c2[H])c([H])c1-c1c([H])nn(C2([H])C([H])([H])C([H])([H])N([H])C([H])([H])C2([H])[H])c1[H]
     RDKit          3D

 66 70  0  0  0  0  0  0  0  0999 V2000
    0.8164   -3.4535   -3.0778 N   0  0  0  0  0  0  0  0  0  0  0  0
   -0.2823   -2.7928   -2.4691 C   0  0  0  0  0  0  0  0  0  0  0  0
   -1.5321   -3.3400   -2.4728 N   0  0  0  0  0  0  0  0  0  0  0  0
   -2.5595   -2.6958   -1.8911 C   0  0  0  0  0  0  0  0  0  0  0  0
   -2.3325   -1.4756   -1.2915 C   0  0  0  0  0  0  0  0  0  0  0  0
   -1.0684   -0.8907   -1.2708 C   0  0  0  0  0  0  0  0  0  0  0  0
   -0.0463   -1.5708   -1.8705 C   0  0  0  0  0  0  0  0  0  0  0  0
    1.2963   -1.0212   -1.8918 C   0  0  0  0  0  0  0  0  0  0  0  0
    2.2513   -1.6627   -2.4639 O   0  0  0  0  0  0  0  0  0  0  0  0
    1.6755    0.2093   -1.3175 N   0  0  0  0  0  0  0  0  0  0  0  0
    3.0186    0.7453   -1.3483 C   0  0  1  0  0  0  0  0  0  0  0  0
    3.0683    2.1398   -1.9058 C   0  0  0  0  0  0  0  0  0  0  0  0
    3.2635    3.0876   -0.7447 C   0  0  0  0  0  0  0  0  0  0  0  0
    2.9605    2.2326    0.4520 C   0  0  0  0  0  0  0  0  0  0  0  0
    3.5168    0.8933    0.0815 C   0  0  2  0  0  0  0  0  0  0  0  0
    4.9046    0.9878    0.1135 O   0  0  0  0  0  0  0  0  0  0  0  0
    5.4408   -0.0461    0.8819 C   0  0  0  0  0  0  0  0  0  0  0  0
    6.9384    0.0676    0.9117 C   0  0  0  0  0  0  0  0  0  0  0  0
    7.5193    1.2074    0.4023 C   0  0  0  0  0  0  0  0  0  0  0  0
    8.8792    1.3445    0.4089 C   0  0  0  0  0  0  0  0  0  0  0  0
    9.6845    0.3440    0.9247 C   0  0  0  0  0  0  0  0  0  0  0  0
    9.1180   -0.8032    1.4385 C   0  0  0  0  0  0  0  0  0  0  0  0
    7.7445   -0.9237    1.4235 C   0  0  0  0  0  0  0  0  0  0  0  0
   -3.4570   -0.7850   -0.6705 C   0  0  0  0  0  0  0  0  0  0  0  0
   -3.6584    0.5802   -0.5470 C   0  0  0  0  0  0  0  0  0  0  0  0
   -4.8247    0.7523    0.0862 N   0  0  0  0  0  0  0  0  0  0  0  0
   -5.3809   -0.4114    0.3747 N   0  0  0  0  0  0  0  0  0  0  0  0
   -4.5594   -1.3728   -0.0801 C   0  0  0  0  0  0  0  0  0  0  0  0
   -6.6658   -0.5837    1.0653 C   0  0  0  0  0  0  0  0  0  0  0  0
   -6.5021   -0.1311    2.4845 C   0  0  0  0  0  0  0  0  0  0  0  0
   -7.7514    0.3946    3.1137 C   0  0  0  0  0  0  0  0  0  0  0  0
   -8.9226   -0.0233    2.3371 N   0  0  0  0  0  0  0  0  0  0  0  0
   -8.8497    0.6750    1.0809 C   0  0  0  0  0  0  0  0  0  0  0  0
   -7.6687    0.2252    0.2813 C   0  0  0  0  0  0  0  0  0  0  0  0
    1.4612   -3.9942   -2.4654 H   0  0  0  0  0  0  0  0  0  0  0  0
    1.0236   -3.4351   -4.1000 H   0  0  0  0  0  0  0  0  0  0  0  0
   -3.5662   -3.1413   -1.8957 H   0  0  0  0  0  0  0  0  0  0  0  0
   -0.9179    0.0726   -0.7904 H   0  0  0  0  0  0  0  0  0  0  0  0
    0.9543    0.7809   -0.8373 H   0  0  0  0  0  0  0  0  0  0  0  0
    3.7181    0.0845   -1.8994 H   0  0  0  0  0  0  0  0  0  0  0  0
    3.9185    2.2811   -2.6134 H   0  0  0  0  0  0  0  0  0  0  0  0
    2.1545    2.3876   -2.4991 H   0  0  0  0  0  0  0  0  0  0  0  0
    4.3354    3.4020   -0.6480 H   0  0  0  0  0  0  0  0  0  0  0  0
    2.5851    3.9794   -0.8238 H   0  0  0  0  0  0  0  0  0  0  0  0
    3.3831    2.6372    1.3926 H   0  0  0  0  0  0  0  0  0  0  0  0
    1.8553    2.1403    0.5684 H   0  0  0  0  0  0  0  0  0  0  0  0
    3.1165    0.0509    0.6593 H   0  0  0  0  0  0  0  0  0  0  0  0
    5.1130    0.0212    1.9418 H   0  0  0  0  0  0  0  0  0  0  0  0
    5.2114   -1.0153    0.4024 H   0  0  0  0  0  0  0  0  0  0  0  0
    6.8884    2.0090   -0.0091 H   0  0  0  0  0  0  0  0  0  0  0  0
    9.2990    2.2725   -0.0084 H   0  0  0  0  0  0  0  0  0  0  0  0
   10.7752    0.4548    0.9288 H   0  0  0  0  0  0  0  0  0  0  0  0
    9.7854   -1.5584    1.8310 H   0  0  0  0  0  0  0  0  0  0  0  0
    7.2858   -1.8368    1.8317 H   0  0  0  0  0  0  0  0  0  0  0  0
   -2.9550    1.3197   -0.9202 H   0  0  0  0  0  0  0  0  0  0  0  0
   -4.7573   -2.4433    0.0157 H   0  0  0  0  0  0  0  0  0  0  0  0
   -6.9111   -1.6607    1.0114 H   0  0  0  0  0  0  0  0  0  0  0  0
   -5.7347    0.6750    2.5116 H   0  0  0  0  0  0  0  0  0  0  0  0
   -6.0667   -0.9904    3.0662 H   0  0  0  0  0  0  0  0  0  0  0  0
   -7.8144    0.0522    4.1641 H   0  0  0  0  0  0  0  0  0  0  0  0
   -7.7758    1.5150    3.0876 H   0  0  0  0  0  0  0  0  0  0  0  0
   -8.7915   -1.0385    2.1435 H   0  0  0  0  0  0  0  0  0  0  0  0
   -9.7518    0.5626    0.4585 H   0  0  0  0  0  0  0  0  0  0  0  0
   -8.7620    1.7663    1.3048 H   0  0  0  0  0  0  0  0  0  0  0  0
   -7.9665   -0.3752   -0.6146 H   0  0  0  0  0  0  0  0  0  0  0  0
   -7.1275    1.1213   -0.1249 H   0  0  0  0  0  0  0  0  0  0  0  0
  1  2  1  0
  2  3  2  0
  3  4  1  0
  4  5  2  0
  5  6  1  0
  6  7  2  0
  7  8  1  0
  8  9  2  0
  8 10  1  0
 10 11  1  0
 11 12  1  0
 12 13  1  0
 13 14  1  0
 14 15  1  0
 15 16  1  0
 16 17  1  0
 17 18  1  0
 18 19  2  0
 19 20  1  0
 20 21  2  0
 21 22  1  0
 22 23  2  0
  5 24  1  0
 24 25  1  0
 25 26  2  0
 26 27  1  0
 27 28  1  0
 27 29  1  0
 29 30  1  0
 30 31  1  0
 31 32  1  0
 32 33  1  0
 33 34  1  0
  7  2  1  0
 15 11  1  0
 23 18  1  0
 28 24  2  0
 34 29  1  0
  1 35  1  0
  1 36  1  0
  4 37  1  0
  6 38  1  0
 10 39  1  0
 11 40  1  6
 12 41  1  0
 12 42  1  0
 13 43  1  0
 13 44  1  0
 14 45  1  0
 14 46  1  0
 15 47  1  1
 17 48  1  0
 17 49  1  0
 19 50  1  0
 20 51  1  0
 21 52  1  0
 22 53  1  0
 23 54  1  0
 25 55  1  0
 28 56  1  0
 29 57  1  0
 30 58  1  0
 30 59  1  0
 31 60  1  0
 31 61  1  0
 32 62  1  0
 33 63  1  0
 33 64  1  0
 34 65  1  0
 34 66  1  0
M  END
$$$$
[H]O[C@]1([H])C([H])([H])C([H])([H])[C@@]([H])(N([H])c2nc(N([H])C([H])([H])C([H])([H])C([H])([H])C([H])([H])[H])nc([H])c2-c2nc([H])c(N([H])[H])c([H])c2[H])C([H])([H])C1([H])[H]
     RDKit          3D

 54 56  0  0  0  0  0  0  0  0999 V2000
    6.7433   -2.9976    1.1175 C   0  0  0  0  0  0  0  0  0  0  0  0
    5.6571   -1.9174    1.0532 C   0  0  0  0  0  0  0  0  0  0  0  0
    5.3865   -1.6561   -0.3874 C   0  0  0  0  0  0  0  0  0  0  0  0
    4.3393   -0.6157   -0.6394 C   0  0  0  0  0  0  0  0  0  0  0  0
    3.0601   -0.9241   -0.0955 N   0  0  0  0  0  0  0  0  0  0  0  0
    1.9888   -0.0149   -0.2695 C   0  0  0  0  0  0  0  0  0  0  0  0
    2.1794    1.1265   -0.9409 N   0  0  0  0  0  0  0  0  0  0  0  0
    1.2277    2.0329   -1.1513 C   0  0  0  0  0  0  0  0  0  0  0  0
   -0.0779    1.8101   -0.6493 C   0  0  0  0  0  0  0  0  0  0  0  0
   -0.2778    0.6649    0.0325 C   0  0  0  0  0  0  0  0  0  0  0  0
   -1.5073    0.3989    0.6997 N   0  0  0  0  0  0  0  0  0  0  0  0
   -1.6180   -0.9236    1.3464 C   0  0  1  0  0  0  0  0  0  0  0  0
   -2.9618   -1.0208    1.9911 C   0  0  0  0  0  0  0  0  0  0  0  0
   -4.0730   -1.2443    0.9854 C   0  0  0  0  0  0  0  0  0  0  0  0
   -3.8349   -2.4890    0.1686 C   0  0  2  0  0  0  0  0  0  0  0  0
   -4.7883   -3.4634    0.4633 O   0  0  0  0  0  0  0  0  0  0  0  0
   -2.4511   -3.0494    0.4218 C   0  0  0  0  0  0  0  0  0  0  0  0
   -1.3768   -2.0016    0.3364 C   0  0  0  0  0  0  0  0  0  0  0  0
    0.7536   -0.2273    0.2094 N   0  0  0  0  0  0  0  0  0  0  0  0
   -1.0460    2.8515   -0.9176 C   0  0  0  0  0  0  0  0  0  0  0  0
   -2.3488    2.6290   -1.1843 C   0  0  0  0  0  0  0  0  0  0  0  0
   -3.2383    3.6601   -1.5291 C   0  0  0  0  0  0  0  0  0  0  0  0
   -2.7834    4.9415   -1.6035 C   0  0  0  0  0  0  0  0  0  0  0  0
   -3.6233    6.0348   -1.9455 N   0  0  0  0  0  0  0  0  0  0  0  0
   -1.4431    5.1645   -1.3303 C   0  0  0  0  0  0  0  0  0  0  0  0
   -0.6323    4.1557   -1.0055 N   0  0  0  0  0  0  0  0  0  0  0  0
    6.3841   -3.9280    0.6123 H   0  0  0  0  0  0  0  0  0  0  0  0
    7.0131   -3.2109    2.1677 H   0  0  0  0  0  0  0  0  0  0  0  0
    7.6231   -2.6111    0.5435 H   0  0  0  0  0  0  0  0  0  0  0  0
    6.0572   -1.0523    1.5996 H   0  0  0  0  0  0  0  0  0  0  0  0
    4.7923   -2.3095    1.6059 H   0  0  0  0  0  0  0  0  0  0  0  0
    6.3352   -1.3921   -0.8903 H   0  0  0  0  0  0  0  0  0  0  0  0
    5.0597   -2.6227   -0.8489 H   0  0  0  0  0  0  0  0  0  0  0  0
    4.2578   -0.4151   -1.7144 H   0  0  0  0  0  0  0  0  0  0  0  0
    4.6904    0.3430   -0.1586 H   0  0  0  0  0  0  0  0  0  0  0  0
    2.8720   -1.8038    0.4344 H   0  0  0  0  0  0  0  0  0  0  0  0
    1.3902    2.9470   -1.6919 H   0  0  0  0  0  0  0  0  0  0  0  0
   -2.3047    1.0195    0.8189 H   0  0  0  0  0  0  0  0  0  0  0  0
   -0.8204   -0.9479    2.1039 H   0  0  0  0  0  0  0  0  0  0  0  0
   -3.2257   -0.1161    2.5586 H   0  0  0  0  0  0  0  0  0  0  0  0
   -2.9830   -1.8702    2.7016 H   0  0  0  0  0  0  0  0  0  0  0  0
   -4.1135   -0.3637    0.3456 H   0  0  0  0  0  0  0  0  0  0  0  0
   -5.0021   -1.3896    1.5744 H   0  0  0  0  0  0  0  0  0  0  0  0
   -3.9571   -2.2297   -0.9030 H   0  0  0  0  0  0  0  0  0  0  0  0
   -4.8912   -3.5741    1.4598 H   0  0  0  0  0  0  0  0  0  0  0  0
   -2.4196   -3.5369    1.4177 H   0  0  0  0  0  0  0  0  0  0  0  0
   -2.2374   -3.8337   -0.3275 H   0  0  0  0  0  0  0  0  0  0  0  0
   -1.2979   -1.6119   -0.6996 H   0  0  0  0  0  0  0  0  0  0  0  0
   -0.4193   -2.5053    0.5651 H   0  0  0  0  0  0  0  0  0  0  0  0
   -2.7851    1.6255   -1.1904 H   0  0  0  0  0  0  0  0  0  0  0  0
   -4.2752    3.4152   -1.7305 H   0  0  0  0  0  0  0  0  0  0  0  0
   -3.2464    6.9321   -2.3195 H   0  0  0  0  0  0  0  0  0  0  0  0
   -4.6505    5.9289   -1.8153 H   0  0  0  0  0  0  0  0  0  0  0  0
   -1.0997    6.1882   -1.3951 H   0  0  0  0  0  0  0  0  0  0  0  0
  1  2  1  0
  2  3  1  0
  3  4  1  0
  4  5  1  0
  5  6  1  0
  6  7  2  0
  7  8  1  0
  8  9  2  0
  9 10  1  0
 10 11  1  0
 11 12  1  0
 12 13  1  0
 13 14  1  0
 14 15  1  0
 15 16  1  0
 15 17  1  0
 17 18  1  0
 10 19  2  0
  9 20  1  0
 20 21  2  0
 21 22  1  0
 22 23  2  0
 23 24  1  0
 23 25  1  0
 25 26  2  0
 19  6  1  0
 26 20  1  0
 18 12  1  0
  1 27  1  0
  1 28  1  0
  1 29  1  0
  2 30  1  0
  2 31  1  0
  3 32  1  0
  3 33  1  0
  4 34  1  0
  4 35  1  0
  5 36  1  0
  8 37  1  0
 11 38  1  0
 12 39  1  1
 13 40  1  0
 13 41  1  0
 14 42  1  0
 14 43  1  0
 15 44  1  6
 16 45  1  0
 17 46  1  0
 17 47  1  0
 18 48  1  0
 18 49  1  0
 21 50  1  0
 22 51  1  0
 24 52  1  0
 24 53  1  0
 25 54  1  0
M  END
$$$$
[H]c1c([H])c(N2C([H])([H])C([H])([H])N([H])C([H])([H])C2([H])[H])c([H])c([H])c1-c1nn(C([H])([H])C2([H])C([H])([H])C([H])([H])C([H])(N([H])[H])C([H])([H])C2([H])[H])c2nc(N([H])C([H])([H])[H])nc([H])c12
     RDKit          3D

 63 67  0  0  0  0  0  0  0  0999 V2000
   -4.3084   -4.0365    1.5494 C   0  0  0  0  0  0  0  0  0  0  0  0
   -2.8985   -4.3400    1.5372 N   0  0  0  0  0  0  0  0  0  0  0  0
   -1.9675   -3.2635    1.2959 C   0  0  0  0  0  0  0  0  0  0  0  0
   -0.6448   -3.5026    1.2765 N   0  0  0  0  0  0  0  0  0  0  0  0
    0.2524   -2.5364    1.0570 C   0  0  0  0  0  0  0  0  0  0  0  0
   -0.2062   -1.2387    0.8414 C   0  0  0  0  0  0  0  0  0  0  0  0
    0.4066   -0.0523    0.6098 C   0  0  0  0  0  0  0  0  0  0  0  0
   -0.5546    0.8688    0.4956 N   0  0  0  0  0  0  0  0  0  0  0  0
   -1.7739    0.3140    0.6458 N   0  0  0  0  0  0  0  0  0  0  0  0
   -3.0068    1.0304    0.5545 C   0  0  0  0  0  0  0  0  0  0  0  0
   -3.5532    1.2612   -0.8209 C   0  0  0  0  0  0  0  0  0  0  0  0
   -3.8105   -0.0063   -1.5199 C   0  0  0  0  0  0  0  0  0  0  0  0
   -5.1336   -0.6367   -1.1164 C   0  0  0  0  0  0  0  0  0  0  0  0
   -6.1738    0.3551   -1.6595 C   0  0  0  0  0  0  0  0  0  0  0  0
   -7.5010   -0.1656   -1.6153 N   0  0  0  0  0  0  0  0  0  0  0  0
   -6.0572    1.5610   -0.7814 C   0  0  0  0  0  0  0  0  0  0  0  0
   -4.7151    2.2147   -0.7874 C   0  0  0  0  0  0  0  0  0  0  0  0
   -1.5724   -1.0004    0.8625 C   0  0  0  0  0  0  0  0  0  0  0  0
   -2.4064   -2.0171    1.0886 N   0  0  0  0  0  0  0  0  0  0  0  0
    1.8582    0.1590    0.5105 C   0  0  0  0  0  0  0  0  0  0  0  0
    2.6208   -0.6825   -0.2438 C   0  0  0  0  0  0  0  0  0  0  0  0
    3.9994   -0.4502   -0.3119 C   0  0  0  0  0  0  0  0  0  0  0  0
    4.5769    0.5995    0.3628 C   0  0  0  0  0  0  0  0  0  0  0  0
    3.7609    1.4313    1.1191 C   0  0  0  0  0  0  0  0  0  0  0  0
    2.4111    1.2120    1.1920 C   0  0  0  0  0  0  0  0  0  0  0  0
    5.9435    0.8672    0.3182 N   0  0  0  0  0  0  0  0  0  0  0  0
    6.8921    0.1235   -0.4586 C   0  0  0  0  0  0  0  0  0  0  0  0
    7.7280    1.0152   -1.3557 C   0  0  0  0  0  0  0  0  0  0  0  0
    8.0014    2.2963   -0.7203 N   0  0  0  0  0  0  0  0  0  0  0  0
    7.9399    2.1163    0.7335 C   0  0  0  0  0  0  0  0  0  0  0  0
    6.4874    1.9736    1.1061 C   0  0  0  0  0  0  0  0  0  0  0  0
   -4.8229   -4.8231    2.1313 H   0  0  0  0  0  0  0  0  0  0  0  0
   -4.6974   -4.0378    0.5004 H   0  0  0  0  0  0  0  0  0  0  0  0
   -4.4693   -3.0290    2.0180 H   0  0  0  0  0  0  0  0  0  0  0  0
   -2.5686   -5.2999    1.6966 H   0  0  0  0  0  0  0  0  0  0  0  0
    1.3016   -2.7225    1.0441 H   0  0  0  0  0  0  0  0  0  0  0  0
   -3.7497    0.5288    1.2257 H   0  0  0  0  0  0  0  0  0  0  0  0
   -2.8592    2.0375    1.0539 H   0  0  0  0  0  0  0  0  0  0  0  0
   -2.7364    1.8039   -1.3865 H   0  0  0  0  0  0  0  0  0  0  0  0
   -2.9984   -0.7351   -1.4999 H   0  0  0  0  0  0  0  0  0  0  0  0
   -3.9552    0.2147   -2.6327 H   0  0  0  0  0  0  0  0  0  0  0  0
   -5.2480   -1.6275   -1.5486 H   0  0  0  0  0  0  0  0  0  0  0  0
   -5.1767   -0.5988   -0.0097 H   0  0  0  0  0  0  0  0  0  0  0  0
   -5.8845    0.6640   -2.6935 H   0  0  0  0  0  0  0  0  0  0  0  0
   -7.4407   -1.2116   -1.5226 H   0  0  0  0  0  0  0  0  0  0  0  0
   -7.9454   -0.0062   -2.5684 H   0  0  0  0  0  0  0  0  0  0  0  0
   -6.3433    1.2352    0.2543 H   0  0  0  0  0  0  0  0  0  0  0  0
   -6.8495    2.2732   -1.0917 H   0  0  0  0  0  0  0  0  0  0  0  0
   -4.6925    2.9420   -1.6229 H   0  0  0  0  0  0  0  0  0  0  0  0
   -4.6230    2.8108    0.1425 H   0  0  0  0  0  0  0  0  0  0  0  0
    2.2079   -1.5343   -0.8059 H   0  0  0  0  0  0  0  0  0  0  0  0
    4.5676   -1.1420   -0.9195 H   0  0  0  0  0  0  0  0  0  0  0  0
    4.1843    2.2779    1.6709 H   0  0  0  0  0  0  0  0  0  0  0  0
    1.7831    1.8904    1.8021 H   0  0  0  0  0  0  0  0  0  0  0  0
    6.4511   -0.6375   -1.1033 H   0  0  0  0  0  0  0  0  0  0  0  0
    7.6176   -0.3815    0.2357 H   0  0  0  0  0  0  0  0  0  0  0  0
    7.2231    1.1751   -2.3306 H   0  0  0  0  0  0  0  0  0  0  0  0
    8.6777    0.4884   -1.5628 H   0  0  0  0  0  0  0  0  0  0  0  0
    7.2359    2.9656   -0.9608 H   0  0  0  0  0  0  0  0  0  0  0  0
    8.3175    3.0805    1.1600 H   0  0  0  0  0  0  0  0  0  0  0  0
    8.5216    1.2520    1.0645 H   0  0  0  0  0  0  0  0  0  0  0  0
    5.9712    2.9182    0.9000 H   0  0  0  0  0  0  0  0  0  0  0  0
    6.4057    1.7582    2.1978 H   0  0  0  0  0  0  0  0  0  0  0  0
  1  2  1  0
  2  3  1  0
  3  4  2  0
  4  5  1  0
  5  6  2  0
  6  7  1  0
  7  8  2  0
  8  9  1  0
  9 10  1  0
 10 11  1  0
 11 12  1  0
 12 13  1  0
 13 14  1  0
 14 15  1  0
 14 16  1  0
 16 17  1  0
  9 18  1  0
 18 19  2  0
  7 20  1  0
 20 21  2  0
 21 22  1  0
 22 23  2  0
 23 24  1  0
 24 25  2  0
 23 26  1  0
 26 27  1  0
 27 28  1  0
 28 29  1  0
 29 30  1  0
 30 31  1  0
 19  3  1  0
 25 20  1  0
 31 26  1  0
 18  6  1  0
 17 11  1  0
  1 32  1  0
  1 33  1  0
  1 34  1  0
  2 35  1  0
  5 36  1  0
 10 37  1  0
 10 38  1  0
 11 39  1  0
 12 40  1  0
 12 41  1  0
 13 42  1  0
 13 43  1  0
 14 44  1  0
 15 45  1  0
 15 46  1  0
 16 47  1  0
 16 48  1  0
 17 49  1  0
 17 50  1  0
 21 51  1  0
 22 52  1  0
 24 53  1  0
 25 54  1  0
 27 55  1  0
 27 56  1  0
 28 57  1  0
 28 58  1  0
 29 59  1  0
 30 60  1  0
 30 61  1  0
 31 62  1  0
 31 63  1  0
M  END
$$$$
[H]O[C@]1([H])C([H])([H])C([H])([H])[C@@]([H])(N([H])c2nc(N([H])C([H])([H])C([H])([H])C([H])([H])[H])nc([H])c2-c2nc([H])c([H])c([H])c2[H])C([H])([H])C1([H])[H]
     RDKit          3D

 49 51  0  0  0  0  0  0  0  0999 V2000
    6.1315   -2.7565   -0.5258 C   0  0  0  0  0  0  0  0  0  0  0  0
    4.6044   -2.8217   -0.5898 C   0  0  0  0  0  0  0  0  0  0  0  0
    4.1010   -1.4211   -0.3019 C   0  0  0  0  0  0  0  0  0  0  0  0
    2.6662   -1.4200   -0.3488 N   0  0  0  0  0  0  0  0  0  0  0  0
    1.9545   -0.2000   -0.1067 C   0  0  0  0  0  0  0  0  0  0  0  0
    2.6150    0.9217    0.1592 N   0  0  0  0  0  0  0  0  0  0  0  0
    1.9267    2.0788    0.3879 C   0  0  0  0  0  0  0  0  0  0  0  0
    0.5495    2.1369    0.3553 C   0  0  0  0  0  0  0  0  0  0  0  0
   -0.1151    0.9766    0.0815 C   0  0  0  0  0  0  0  0  0  0  0  0
   -1.5250    0.8338    0.0143 N   0  0  0  0  0  0  0  0  0  0  0  0
   -2.0948   -0.4749   -0.2777 C   0  0  1  0  0  0  0  0  0  0  0  0
   -1.9009   -1.4783    0.8285 C   0  0  0  0  0  0  0  0  0  0  0  0
   -2.1061   -2.8429    0.1557 C   0  0  0  0  0  0  0  0  0  0  0  0
   -3.5029   -2.9087   -0.3465 C   0  0  2  0  0  0  0  0  0  0  0  0
   -3.4980   -3.4533   -1.6409 O   0  0  0  0  0  0  0  0  0  0  0  0
   -4.2998   -1.6580   -0.2771 C   0  0  0  0  0  0  0  0  0  0  0  0
   -3.5428   -0.4059   -0.6413 C   0  0  0  0  0  0  0  0  0  0  0  0
    0.6296   -0.1614   -0.1420 N   0  0  0  0  0  0  0  0  0  0  0  0
   -0.1338    3.3757    0.6313 C   0  0  0  0  0  0  0  0  0  0  0  0
    0.5642    4.4329    1.2396 C   0  0  0  0  0  0  0  0  0  0  0  0
   -0.0511    5.6277    1.5453 C   0  0  0  0  0  0  0  0  0  0  0  0
   -1.3719    5.8132    1.2603 C   0  0  0  0  0  0  0  0  0  0  0  0
   -2.0439    4.7467    0.6561 C   0  0  0  0  0  0  0  0  0  0  0  0
   -1.4116    3.6214    0.3821 N   0  0  0  0  0  0  0  0  0  0  0  0
    6.4991   -2.3534   -1.4780 H   0  0  0  0  0  0  0  0  0  0  0  0
    6.3778   -2.0540    0.2864 H   0  0  0  0  0  0  0  0  0  0  0  0
    6.5588   -3.7369   -0.2626 H   0  0  0  0  0  0  0  0  0  0  0  0
    4.2607   -3.5352    0.1739 H   0  0  0  0  0  0  0  0  0  0  0  0
    4.3152   -3.1735   -1.5785 H   0  0  0  0  0  0  0  0  0  0  0  0
    4.3895   -1.1182    0.7335 H   0  0  0  0  0  0  0  0  0  0  0  0
    4.5569   -0.6809   -0.9721 H   0  0  0  0  0  0  0  0  0  0  0  0
    2.1579   -2.3034   -0.5578 H   0  0  0  0  0  0  0  0  0  0  0  0
    2.4872    2.9629    0.5856 H   0  0  0  0  0  0  0  0  0  0  0  0
   -2.1981    1.5721    0.1601 H   0  0  0  0  0  0  0  0  0  0  0  0
   -1.5563   -0.8977   -1.1754 H   0  0  0  0  0  0  0  0  0  0  0  0
   -0.9554   -1.4134    1.3560 H   0  0  0  0  0  0  0  0  0  0  0  0
   -2.7453   -1.4163    1.5796 H   0  0  0  0  0  0  0  0  0  0  0  0
   -1.8461   -3.6445    0.8779 H   0  0  0  0  0  0  0  0  0  0  0  0
   -1.4117   -2.8563   -0.7088 H   0  0  0  0  0  0  0  0  0  0  0  0
   -4.0409   -3.6734    0.2901 H   0  0  0  0  0  0  0  0  0  0  0  0
   -4.4348   -3.5371   -1.9478 H   0  0  0  0  0  0  0  0  0  0  0  0
   -4.7852   -1.5453    0.7116 H   0  0  0  0  0  0  0  0  0  0  0  0
   -5.1415   -1.7424   -1.0137 H   0  0  0  0  0  0  0  0  0  0  0  0
   -3.7078   -0.1425   -1.7111 H   0  0  0  0  0  0  0  0  0  0  0  0
   -3.9982    0.4252   -0.0538 H   0  0  0  0  0  0  0  0  0  0  0  0
    1.5930    4.3135    1.4842 H   0  0  0  0  0  0  0  0  0  0  0  0
    0.4905    6.4401    2.0136 H   0  0  0  0  0  0  0  0  0  0  0  0
   -1.9247    6.7001    1.4612 H   0  0  0  0  0  0  0  0  0  0  0  0
   -3.0854    4.8479    0.4137 H   0  0  0  0  0  0  0  0  0  0  0  0
  1  2  1  0
  2  3  1  0
  3  4  1  0
  4  5  1  0
  5  6  2  0
  6  7  1  0
  7  8  2  0
  8  9  1  0
  9 10  1  0
 10 11  1  0
 11 12  1  0
 12 13  1  0
 13 14  1  0
 14 15  1  0
 14 16  1  0
 16 17  1  0
  9 18  2  0
  8 19  1  0
 19 20  2  0
 20 21  1  0
 21 22  2  0
 22 23  1  0
 23 24  2  0
 18  5  1  0
 24 19  1  0
 17 11  1  0
  1 25  1  0
  1 26  1  0
  1 27  1  0
  2 28  1  0
  2 29  1  0
  3 30  1  0
  3 31  1  0
  4 32  1  0
  7 33  1  0
 10 34  1  0
 11 35  1  6
 12 36  1  0
 12 37  1  0
 13 38  1  0
 13 39  1  0
 14 40  1  1
 15 41  1  0
 16 42  1  0
 16 43  1  0
 17 44  1  0
 17 45  1  0
 20 46  1  0
 21 47  1  0
 22 48  1  0
 23 49  1  0
M  END
$$$$
[H]OC1([H])C([H])([H])C([H])([H])C([H])(n2nc(-c3c([H])c([H])c(N([H])S(=O)(=O)C([H])([H])[H])c([H])c3[H])c3c([H])nc(N([H])C([H])([H])C([H])([H])C([H])([H])C([H])([H])[H])nc32)C([H])([H])C1([H])[H]
     RDKit          3D

 62 65  0  0  0  0  0  0  0  0999 V2000
   -4.4050    5.3861   -1.3843 C   0  0  0  0  0  0  0  0  0  0  0  0
   -5.0090    5.0456   -0.0464 C   0  0  0  0  0  0  0  0  0  0  0  0
   -4.3298    3.7450    0.4114 C   0  0  0  0  0  0  0  0  0  0  0  0
   -4.6487    2.7275   -0.6474 C   0  0  0  0  0  0  0  0  0  0  0  0
   -4.1259    1.4273   -0.4454 N   0  0  0  0  0  0  0  0  0  0  0  0
   -2.7244    1.1186   -0.3567 C   0  0  0  0  0  0  0  0  0  0  0  0
   -1.7589    2.0475   -0.4597 N   0  0  0  0  0  0  0  0  0  0  0  0
   -0.4564    1.7560   -0.3766 C   0  0  0  0  0  0  0  0  0  0  0  0
   -0.0440    0.4606   -0.1774 C   0  0  0  0  0  0  0  0  0  0  0  0
    1.1447   -0.2029   -0.0446 C   0  0  0  0  0  0  0  0  0  0  0  0
    0.8640   -1.5156    0.1350 N   0  0  0  0  0  0  0  0  0  0  0  0
   -0.4290   -1.7240    0.1242 N   0  0  0  0  0  0  0  0  0  0  0  0
   -1.1225   -2.9627    0.2801 C   0  0  0  0  0  0  0  0  0  0  0  0
   -1.0656   -3.8360   -0.9648 C   0  0  0  0  0  0  0  0  0  0  0  0
   -2.1490   -4.8891   -0.7853 C   0  0  0  0  0  0  0  0  0  0  0  0
   -1.9771   -5.6856    0.4688 C   0  0  0  0  0  0  0  0  0  0  0  0
   -3.2137   -6.3242    0.7191 O   0  0  0  0  0  0  0  0  0  0  0  0
   -1.6532   -4.8733    1.6774 C   0  0  0  0  0  0  0  0  0  0  0  0
   -0.6232   -3.7985    1.4261 C   0  0  0  0  0  0  0  0  0  0  0  0
   -1.0282   -0.5196   -0.0677 C   0  0  0  0  0  0  0  0  0  0  0  0
   -2.3117   -0.1454   -0.1620 N   0  0  0  0  0  0  0  0  0  0  0  0
    2.4572    0.4295   -0.0945 C   0  0  0  0  0  0  0  0  0  0  0  0
    3.4508   -0.1645   -0.8458 C   0  0  0  0  0  0  0  0  0  0  0  0
    4.7356    0.3911   -0.9360 C   0  0  0  0  0  0  0  0  0  0  0  0
    5.0173    1.5430   -0.2697 C   0  0  0  0  0  0  0  0  0  0  0  0
    6.2831    2.1733   -0.3103 N   0  0  0  0  0  0  0  0  0  0  0  0
    7.7032    1.2353   -0.0863 S   0  0  0  0  0  0  0  0  0  0  0  0
    7.5875    0.5245    1.5602 C   0  0  0  0  0  0  0  0  0  0  0  0
    7.8621    0.1331   -1.0868 O   0  0  0  0  0  0  0  0  0  0  0  0
    8.9305    2.1173   -0.1607 O   0  0  0  0  0  0  0  0  0  0  0  0
    3.9959    2.1324    0.4884 C   0  0  0  0  0  0  0  0  0  0  0  0
    2.7346    1.5953    0.5824 C   0  0  0  0  0  0  0  0  0  0  0  0
   -4.9049    4.9233   -2.2355 H   0  0  0  0  0  0  0  0  0  0  0  0
   -4.3278    6.4845   -1.5421 H   0  0  0  0  0  0  0  0  0  0  0  0
   -3.3383    5.0184   -1.3991 H   0  0  0  0  0  0  0  0  0  0  0  0
   -6.0889    4.8343   -0.2259 H   0  0  0  0  0  0  0  0  0  0  0  0
   -4.9170    5.8334    0.7018 H   0  0  0  0  0  0  0  0  0  0  0  0
   -3.2466    3.9769    0.3822 H   0  0  0  0  0  0  0  0  0  0  0  0
   -4.6911    3.4675    1.4026 H   0  0  0  0  0  0  0  0  0  0  0  0
   -4.1800    3.1265   -1.5934 H   0  0  0  0  0  0  0  0  0  0  0  0
   -5.7389    2.6815   -0.7991 H   0  0  0  0  0  0  0  0  0  0  0  0
   -4.8175    0.6395   -0.3545 H   0  0  0  0  0  0  0  0  0  0  0  0
    0.2850    2.5240   -0.4638 H   0  0  0  0  0  0  0  0  0  0  0  0
   -2.2175   -2.7877    0.4666 H   0  0  0  0  0  0  0  0  0  0  0  0
   -0.0989   -4.3273   -1.0866 H   0  0  0  0  0  0  0  0  0  0  0  0
   -1.3612   -3.2054   -1.8191 H   0  0  0  0  0  0  0  0  0  0  0  0
   -2.1764   -5.5937   -1.6394 H   0  0  0  0  0  0  0  0  0  0  0  0
   -3.1418   -4.3815   -0.7347 H   0  0  0  0  0  0  0  0  0  0  0  0
   -1.2450   -6.5172    0.3465 H   0  0  0  0  0  0  0  0  0  0  0  0
   -3.4488   -6.9265   -0.0366 H   0  0  0  0  0  0  0  0  0  0  0  0
   -2.5910   -4.3710    2.0170 H   0  0  0  0  0  0  0  0  0  0  0  0
   -1.2592   -5.5519    2.4595 H   0  0  0  0  0  0  0  0  0  0  0  0
   -0.5292   -3.2182    2.3635 H   0  0  0  0  0  0  0  0  0  0  0  0
    0.3505   -4.2353    1.1465 H   0  0  0  0  0  0  0  0  0  0  0  0
    3.3057   -1.0770   -1.4014 H   0  0  0  0  0  0  0  0  0  0  0  0
    5.4977   -0.0943   -1.5366 H   0  0  0  0  0  0  0  0  0  0  0  0
    6.3820    3.1973   -0.4732 H   0  0  0  0  0  0  0  0  0  0  0  0
    6.7455   -0.2055    1.5410 H   0  0  0  0  0  0  0  0  0  0  0  0
    8.5073    0.0101    1.8468 H   0  0  0  0  0  0  0  0  0  0  0  0
    7.3377    1.2811    2.3028 H   0  0  0  0  0  0  0  0  0  0  0  0
    4.2488    3.0553    1.0123 H   0  0  0  0  0  0  0  0  0  0  0  0
    1.9684    2.0913    1.1875 H   0  0  0  0  0  0  0  0  0  0  0  0
  1  2  1  0
  2  3  1  0
  3  4  1  0
  4  5  1  0
  5  6  1  0
  6  7  2  0
  7  8  1  0
  8  9  2  0
  9 10  1  0
 10 11  2  0
 11 12  1  0
 12 13  1  0
 13 14  1  0
 14 15  1  0
 15 16  1  0
 16 17  1  0
 16 18  1  0
 18 19  1  0
 12 20  1  0
 20 21  2  0
 10 22  1  0
 22 23  2  0
 23 24  1  0
 24 25  2  0
 25 26  1  0
 26 27  1  0
 27 28  1  0
 27 29  2  0
 27 30  2  0
 25 31  1  0
 31 32  2  0
 21  6  1  0
 32 22  1  0
 20  9  1  0
 19 13  1  0
  1 33  1  0
  1 34  1  0
  1 35  1  0
  2 36  1  0
  2 37  1  0
  3 38  1  0
  3 39  1  0
  4 40  1  0
  4 41  1  0
  5 42  1  0
  8 43  1  0
 13 44  1  0
 14 45  1  0
 14 46  1  0
 15 47  1  0
 15 48  1  0
 16 49  1  0
 17 50  1  0
 18 51  1  0
 18 52  1  0
 19 53  1  0
 19 54  1  0
 23 55  1  0
 24 56  1  0
 26 57  1  0
 28 58  1  0
 28 59  1  0
 28 60  1  0
 31 61  1  0
 32 62  1  0
M  END
$$$$
[H]C1=C([H])C([H])(F)C([H])([H])C([H])=C1N([H])C(=O)C1(C(=O)N([H])c2c([H])c([H])c(Oc3c([H])c([H])nc4c([H])c(OC([H])([H])C([H])([H])C([H])([H])N5C([H])([H])C([H])([H])OC([H])([H])C5([H])[H])c(OC([H])([H])[H])c([H])c34)c(F)c2[H])C([H])([H])C1([H])[H]
     RDKit          3D

 82 87  0  0  0  0  0  0  0  0999 V2000
    3.9666    3.0495   -1.7322 C   0  0  0  0  0  0  0  0  0  0  0  0
    4.8184    1.9472   -1.5191 O   0  0  0  0  0  0  0  0  0  0  0  0
    4.2779    0.7150   -1.2054 C   0  0  0  0  0  0  0  0  0  0  0  0
    2.9355    0.4830   -1.0834 C   0  0  0  0  0  0  0  0  0  0  0  0
    2.5057   -0.7878   -0.7673 C   0  0  0  0  0  0  0  0  0  0  0  0
    1.1302   -1.0757   -0.6337 C   0  0  0  0  0  0  0  0  0  0  0  0
    0.2693   -0.0306   -0.8259 O   0  0  0  0  0  0  0  0  0  0  0  0
   -1.0898   -0.1642   -0.6451 C   0  0  0  0  0  0  0  0  0  0  0  0
   -1.9847   -0.0120   -1.6950 C   0  0  0  0  0  0  0  0  0  0  0  0
   -3.3381   -0.1282   -1.5809 C   0  0  0  0  0  0  0  0  0  0  0  0
   -3.8905   -0.4214   -0.3289 C   0  0  0  0  0  0  0  0  0  0  0  0
   -5.3238   -0.4986   -0.2135 N   0  0  0  0  0  0  0  0  0  0  0  0
   -5.9613   -1.3830    0.6262 C   0  0  0  0  0  0  0  0  0  0  0  0
   -5.1921   -2.1849    1.2964 O   0  0  0  0  0  0  0  0  0  0  0  0
   -7.4011   -1.5958    0.9101 C   0  0  0  0  0  0  0  0  0  0  0  0
   -7.6820   -2.4618    2.1265 C   0  0  0  0  0  0  0  0  0  0  0  0
   -7.8126   -3.1190    0.8294 C   0  0  0  0  0  0  0  0  0  0  0  0
   -8.4706   -0.6963    0.4763 C   0  0  0  0  0  0  0  0  0  0  0  0
   -9.6747   -1.1656    0.7176 O   0  0  0  0  0  0  0  0  0  0  0  0
   -8.4814    0.5528   -0.1324 N   0  0  0  0  0  0  0  0  0  0  0  0
   -9.7446    1.2195   -0.4499 C   0  0  0  0  0  0  0  0  0  0  0  0
   -9.9496    2.4040    0.0799 C   0  0  0  0  0  0  0  0  0  0  0  0
  -11.1350    3.2347   -0.1097 C   0  0  0  0  0  0  0  0  0  0  0  0
  -12.2008    2.6387   -0.9439 C   0  0  0  0  0  0  0  0  0  0  0  0
  -12.4721    3.4850   -2.0494 F   0  0  0  0  0  0  0  0  0  0  0  0
  -11.8730    1.3187   -1.4859 C   0  0  0  0  0  0  0  0  0  0  0  0
  -10.7586    0.6480   -1.2759 C   0  0  0  0  0  0  0  0  0  0  0  0
   -3.0432   -0.5784    0.7341 C   0  0  0  0  0  0  0  0  0  0  0  0
   -1.6522   -0.4525    0.5863 C   0  0  0  0  0  0  0  0  0  0  0  0
   -0.8827   -0.5957    1.6903 F   0  0  0  0  0  0  0  0  0  0  0  0
    0.7223   -2.3515   -0.3227 C   0  0  0  0  0  0  0  0  0  0  0  0
    1.6378   -3.3635   -0.1352 C   0  0  0  0  0  0  0  0  0  0  0  0
    2.9451   -3.0865   -0.2619 N   0  0  0  0  0  0  0  0  0  0  0  0
    3.3732   -1.8309   -0.5703 C   0  0  0  0  0  0  0  0  0  0  0  0
    4.7330   -1.5901   -0.6954 C   0  0  0  0  0  0  0  0  0  0  0  0
    5.1920   -0.3333   -1.0085 C   0  0  0  0  0  0  0  0  0  0  0  0
    6.5206   -0.0853   -1.1253 O   0  0  0  0  0  0  0  0  0  0  0  0
    7.5310   -0.9938   -0.8772 C   0  0  0  0  0  0  0  0  0  0  0  0
    7.6262   -1.3701    0.5948 C   0  0  0  0  0  0  0  0  0  0  0  0
    7.9359   -0.0985    1.3961 C   0  0  0  0  0  0  0  0  0  0  0  0
    9.1945    0.4265    0.9288 N   0  0  0  0  0  0  0  0  0  0  0  0
    9.4053    1.7864    1.4776 C   0  0  0  0  0  0  0  0  0  0  0  0
   10.8161    2.1639    1.0165 C   0  0  0  0  0  0  0  0  0  0  0  0
   11.2632    1.3549   -0.0281 O   0  0  0  0  0  0  0  0  0  0  0  0
   11.4615    0.0232    0.3872 C   0  0  0  0  0  0  0  0  0  0  0  0
   10.3466   -0.3576    1.3702 C   0  0  0  0  0  0  0  0  0  0  0  0
    4.5770    3.9509   -1.9692 H   0  0  0  0  0  0  0  0  0  0  0  0
    3.3066    3.2216   -0.8582 H   0  0  0  0  0  0  0  0  0  0  0  0
    3.3086    2.7911   -2.5987 H   0  0  0  0  0  0  0  0  0  0  0  0
    2.2243    1.2761   -1.2311 H   0  0  0  0  0  0  0  0  0  0  0  0
   -1.5528    0.2161   -2.6750 H   0  0  0  0  0  0  0  0  0  0  0  0
   -4.0246   -0.0039   -2.4200 H   0  0  0  0  0  0  0  0  0  0  0  0
   -5.8260    0.1518   -0.8369 H   0  0  0  0  0  0  0  0  0  0  0  0
   -6.8106   -2.7138    2.7607 H   0  0  0  0  0  0  0  0  0  0  0  0
   -8.5985   -2.2800    2.7131 H   0  0  0  0  0  0  0  0  0  0  0  0
   -7.0275   -3.7752    0.4011 H   0  0  0  0  0  0  0  0  0  0  0  0
   -8.7992   -3.3162    0.3639 H   0  0  0  0  0  0  0  0  0  0  0  0
   -7.6334    1.0911   -0.3743 H   0  0  0  0  0  0  0  0  0  0  0  0
   -9.1652    2.8388    0.7401 H   0  0  0  0  0  0  0  0  0  0  0  0
  -11.5358    3.5321    0.9159 H   0  0  0  0  0  0  0  0  0  0  0  0
  -10.8538    4.2484   -0.5572 H   0  0  0  0  0  0  0  0  0  0  0  0
  -13.1586    2.5647   -0.3407 H   0  0  0  0  0  0  0  0  0  0  0  0
  -12.6648    0.8691   -2.1323 H   0  0  0  0  0  0  0  0  0  0  0  0
  -10.6018   -0.3227   -1.7168 H   0  0  0  0  0  0  0  0  0  0  0  0
   -3.4037   -0.7893    1.7394 H   0  0  0  0  0  0  0  0  0  0  0  0
   -0.3200   -2.5956   -0.2356 H   0  0  0  0  0  0  0  0  0  0  0  0
    1.2680   -4.3480    0.1079 H   0  0  0  0  0  0  0  0  0  0  0  0
    5.3620   -2.4538   -0.5623 H   0  0  0  0  0  0  0  0  0  0  0  0
    7.4424   -1.9223   -1.5038 H   0  0  0  0  0  0  0  0  0  0  0  0
    8.4920   -0.5348   -1.2249 H   0  0  0  0  0  0  0  0  0  0  0  0
    6.7751   -1.8921    1.0071 H   0  0  0  0  0  0  0  0  0  0  0  0
    8.4922   -2.0400    0.6815 H   0  0  0  0  0  0  0  0  0  0  0  0
    7.1233    0.6400    1.3255 H   0  0  0  0  0  0  0  0  0  0  0  0
    8.0487   -0.4301    2.4644 H   0  0  0  0  0  0  0  0  0  0  0  0
    9.4079    1.7624    2.5778 H   0  0  0  0  0  0  0  0  0  0  0  0
    8.6320    2.4413    1.0296 H   0  0  0  0  0  0  0  0  0  0  0  0
   11.5508    2.0414    1.8480 H   0  0  0  0  0  0  0  0  0  0  0  0
   10.8264    3.2054    0.6080 H   0  0  0  0  0  0  0  0  0  0  0  0
   11.3001   -0.6008   -0.5146 H   0  0  0  0  0  0  0  0  0  0  0  0
   12.4569   -0.1361    0.8078 H   0  0  0  0  0  0  0  0  0  0  0  0
   10.1090   -1.3943    1.4038 H   0  0  0  0  0  0  0  0  0  0  0  0
   10.6797    0.0679    2.3647 H   0  0  0  0  0  0  0  0  0  0  0  0
  1  2  1  0
  2  3  1  0
  3  4  2  0
  4  5  1  0
  5  6  2  0
  6  7  1  0
  7  8  1  0
  8  9  2  0
  9 10  1  0
 10 11  2  0
 11 12  1  0
 12 13  1  0
 13 14  2  0
 13 15  1  0
 15 16  1  0
 16 17  1  0
 15 18  1  0
 18 19  2  0
 18 20  1  0
 20 21  1  0
 21 22  2  0
 22 23  1  0
 23 24  1  0
 24 25  1  0
 24 26  1  0
 26 27  2  0
 11 28  1  0
 28 29  2  0
 29 30  1  0
  6 31  1  0
 31 32  2  0
 32 33  1  0
 33 34  2  0
 34 35  1  0
 35 36  2  0
 36 37  1  0
 37 38  1  0
 38 39  1  0
 39 40  1  0
 40 41  1  0
 41 42  1  0
 42 43  1  0
 43 44  1  0
 44 45  1  0
 45 46  1  0
 36  3  1  0
 46 41  1  0
 34  5  1  0
 29  8  1  0
 17 15  1  0
 27 21  1  0
  1 47  1  0
  1 48  1  0
  1 49  1  0
  4 50  1  0
  9 51  1  0
 10 52  1  0
 12 53  1  0
 16 54  1  0
 16 55  1  0
 17 56  1  0
 17 57  1  0
 20 58  1  0
 22 59  1  0
 23 60  1  0
 23 61  1  0
 24 62  1  0
 26 63  1  0
 27 64  1  0
 28 65  1  0
 31 66  1  0
 32 67  1  0
 35 68  1  0
 38 69  1  0
 38 70  1  0
 39 71  1  0
 39 72  1  0
 40 73  1  0
 40 74  1  0
 42 75  1  0
 42 76  1  0
 43 77  1  0
 43 78  1  0
 45 79  1  0
 45 80  1  0
 46 81  1  0
 46 82  1  0
M  END
$$$$
[H]O[C@]1([H])C([H])([H])C([H])([H])[C@@]([H])(n2c([H])c(-c3c([H])c([H])c(C4(N5C([H])([H])C([H])([H])N(C([H])([H])[H])C([H])([H])C5([H])[H])C([H])([H])C4([H])[H])c([H])c3[H])c3c([H])nc(N([H])C([H])([H])C([H])([H])C([H])([H])C([H])([H])[H])nc32)C([H])([H])C1([H])[H]
     RDKit          3D

 79 84  0  0  0  0  0  0  0  0999 V2000
   -7.2956    5.0852   -0.1305 C   0  0  0  0  0  0  0  0  0  0  0  0
   -5.8257    5.0411    0.2475 C   0  0  0  0  0  0  0  0  0  0  0  0
   -5.4733    3.5648    0.4588 C   0  0  0  0  0  0  0  0  0  0  0  0
   -5.7290    2.8273   -0.8247 C   0  0  0  0  0  0  0  0  0  0  0  0
   -5.4201    1.4316   -0.6567 N   0  0  0  0  0  0  0  0  0  0  0  0
   -4.1204    0.9336   -0.3985 C   0  0  0  0  0  0  0  0  0  0  0  0
   -3.0344    1.7154   -0.2928 N   0  0  0  0  0  0  0  0  0  0  0  0
   -1.7977    1.2680   -0.0416 C   0  0  0  0  0  0  0  0  0  0  0  0
   -1.6331   -0.1046    0.1202 C   0  0  0  0  0  0  0  0  0  0  0  0
   -0.5551   -0.9089    0.3843 C   0  0  0  0  0  0  0  0  0  0  0  0
   -1.0288   -2.2054    0.4337 C   0  0  0  0  0  0  0  0  0  0  0  0
   -2.3490   -2.1668    0.2055 N   0  0  0  0  0  0  0  0  0  0  0  0
   -3.2059   -3.3201    0.1846 C   0  0  1  0  0  0  0  0  0  0  0  0
   -4.4599   -3.1365   -0.6339 C   0  0  0  0  0  0  0  0  0  0  0  0
   -5.0621   -4.4781   -1.0364 C   0  0  0  0  0  0  0  0  0  0  0  0
   -4.6549   -5.5729   -0.0813 C   0  0  2  0  0  0  0  0  0  0  0  0
   -5.1916   -5.4269    1.1824 O   0  0  0  0  0  0  0  0  0  0  0  0
   -3.1637   -5.7851   -0.0668 C   0  0  0  0  0  0  0  0  0  0  0  0
   -2.4574   -4.4882   -0.4117 C   0  0  0  0  0  0  0  0  0  0  0  0
   -2.7602   -0.8850    0.0072 C   0  0  0  0  0  0  0  0  0  0  0  0
   -3.9898   -0.4191   -0.2447 N   0  0  0  0  0  0  0  0  0  0  0  0
    0.8140   -0.4580    0.5803 C   0  0  0  0  0  0  0  0  0  0  0  0
    1.1581    0.6060    1.3745 C   0  0  0  0  0  0  0  0  0  0  0  0
    2.4747    0.9790    1.5190 C   0  0  0  0  0  0  0  0  0  0  0  0
    3.4353    0.2758    0.8614 C   0  0  0  0  0  0  0  0  0  0  0  0
    3.1298   -0.7977    0.0555 C   0  0  0  0  0  0  0  0  0  0  0  0
    1.8199   -1.1620   -0.0832 C   0  0  0  0  0  0  0  0  0  0  0  0
    4.8970    0.6301    0.9824 C   0  0  0  0  0  0  0  0  0  0  0  0
    5.7392   -0.4470    1.5497 C   0  0  0  0  0  0  0  0  0  0  0  0
    5.3612    0.7439    2.3882 C   0  0  0  0  0  0  0  0  0  0  0  0
    5.3393    1.5168   -0.0384 N   0  0  0  0  0  0  0  0  0  0  0  0
    5.6870    0.9391   -1.2873 C   0  0  0  0  0  0  0  0  0  0  0  0
    6.6801    1.8254   -1.9984 C   0  0  0  0  0  0  0  0  0  0  0  0
    7.8369    2.0066   -1.1851 N   0  0  0  0  0  0  0  0  0  0  0  0
    8.5568    0.7742   -1.0530 C   0  0  0  0  0  0  0  0  0  0  0  0
    7.5584    2.5352    0.1284 C   0  0  0  0  0  0  0  0  0  0  0  0
    6.0654    2.6681    0.3675 C   0  0  0  0  0  0  0  0  0  0  0  0
   -7.7556    6.0332    0.2164 H   0  0  0  0  0  0  0  0  0  0  0  0
   -7.8072    4.2232    0.3637 H   0  0  0  0  0  0  0  0  0  0  0  0
   -7.4339    5.0390   -1.2278 H   0  0  0  0  0  0  0  0  0  0  0  0
   -5.5852    5.6534    1.1171 H   0  0  0  0  0  0  0  0  0  0  0  0
   -5.2170    5.3840   -0.6145 H   0  0  0  0  0  0  0  0  0  0  0  0
   -4.4095    3.5625    0.7524 H   0  0  0  0  0  0  0  0  0  0  0  0
   -6.1019    3.1681    1.2840 H   0  0  0  0  0  0  0  0  0  0  0  0
   -6.7668    2.9905   -1.1674 H   0  0  0  0  0  0  0  0  0  0  0  0
   -5.0479    3.2992   -1.5950 H   0  0  0  0  0  0  0  0  0  0  0  0
   -6.2424    0.7675   -0.7383 H   0  0  0  0  0  0  0  0  0  0  0  0
   -0.9339    1.8973    0.0425 H   0  0  0  0  0  0  0  0  0  0  0  0
   -0.3533   -3.0294    0.6328 H   0  0  0  0  0  0  0  0  0  0  0  0
   -3.5223   -3.6282    1.2073 H   0  0  0  0  0  0  0  0  0  0  0  0
   -4.2861   -2.6001   -1.5885 H   0  0  0  0  0  0  0  0  0  0  0  0
   -5.2204   -2.6649    0.0203 H   0  0  0  0  0  0  0  0  0  0  0  0
   -4.6767   -4.7705   -2.0386 H   0  0  0  0  0  0  0  0  0  0  0  0
   -6.1759   -4.4280   -1.0055 H   0  0  0  0  0  0  0  0  0  0  0  0
   -5.1000   -6.5157   -0.4957 H   0  0  0  0  0  0  0  0  0  0  0  0
   -4.7231   -6.0665    1.7812 H   0  0  0  0  0  0  0  0  0  0  0  0
   -2.8493   -6.5303   -0.8349 H   0  0  0  0  0  0  0  0  0  0  0  0
   -2.8652   -6.1853    0.9067 H   0  0  0  0  0  0  0  0  0  0  0  0
   -2.4812   -4.3680   -1.5287 H   0  0  0  0  0  0  0  0  0  0  0  0
   -1.4429   -4.5739   -0.0224 H   0  0  0  0  0  0  0  0  0  0  0  0
    0.3836    1.1501    1.8868 H   0  0  0  0  0  0  0  0  0  0  0  0
    2.7743    1.8142    2.1380 H   0  0  0  0  0  0  0  0  0  0  0  0
    3.9331   -1.3415   -0.4594 H   0  0  0  0  0  0  0  0  0  0  0  0
    1.5478   -1.9982   -0.7071 H   0  0  0  0  0  0  0  0  0  0  0  0
    6.7933   -0.6019    1.2438 H   0  0  0  0  0  0  0  0  0  0  0  0
    5.2547   -1.4085    1.8770 H   0  0  0  0  0  0  0  0  0  0  0  0
    4.6316    0.5938    3.2353 H   0  0  0  0  0  0  0  0  0  0  0  0
    6.2180    1.3609    2.6906 H   0  0  0  0  0  0  0  0  0  0  0  0
    6.1828   -0.0602   -1.1566 H   0  0  0  0  0  0  0  0  0  0  0  0
    4.7770    0.8453   -1.9234 H   0  0  0  0  0  0  0  0  0  0  0  0
    6.9669    1.2898   -2.9282 H   0  0  0  0  0  0  0  0  0  0  0  0
    6.2108    2.8071   -2.2749 H   0  0  0  0  0  0  0  0  0  0  0  0
    8.1491   -0.0435   -1.6584 H   0  0  0  0  0  0  0  0  0  0  0  0
    9.6054    0.9827   -1.4166 H   0  0  0  0  0  0  0  0  0  0  0  0
    8.6048    0.4111    0.0058 H   0  0  0  0  0  0  0  0  0  0  0  0
    7.9721    3.5581    0.1859 H   0  0  0  0  0  0  0  0  0  0  0  0
    8.0270    1.9561    0.9470 H   0  0  0  0  0  0  0  0  0  0  0  0
    5.9090    2.9003    1.4216 H   0  0  0  0  0  0  0  0  0  0  0  0
    5.7114    3.5226   -0.2706 H   0  0  0  0  0  0  0  0  0  0  0  0
  1  2  1  0
  2  3  1  0
  3  4  1  0
  4  5  1  0
  5  6  1  0
  6  7  2  0
  7  8  1  0
  8  9  2  0
  9 10  1  0
 10 11  2  0
 11 12  1  0
 12 13  1  0
 13 14  1  0
 14 15  1  0
 15 16  1  0
 16 17  1  0
 16 18  1  0
 18 19  1  0
 12 20  1  0
 20 21  2  0
 10 22  1  0
 22 23  2  0
 23 24  1  0
 24 25  2  0
 25 26  1  0
 26 27  2  0
 25 28  1  0
 28 29  1  0
 29 30  1  0
 28 31  1  0
 31 32  1  0
 32 33  1  0
 33 34  1  0
 34 35  1  0
 34 36  1  0
 36 37  1  0
 21  6  1  0
 27 22  1  0
 30 28  1  0
 37 31  1  0
 20  9  1  0
 19 13  1  0
  1 38  1  0
  1 39  1  0
  1 40  1  0
  2 41  1  0
  2 42  1  0
  3 43  1  0
  3 44  1  0
  4 45  1  0
  4 46  1  0
  5 47  1  0
  8 48  1  0
 11 49  1  0
 13 50  1  1
 14 51  1  0
 14 52  1  0
 15 53  1  0
 15 54  1  0
 16 55  1  6
 17 56  1  0
 18 57  1  0
 18 58  1  0
 19 59  1  0
 19 60  1  0
 23 61  1  0
 24 62  1  0
 26 63  1  0
 27 64  1  0
 29 65  1  0
 29 66  1  0
 30 67  1  0
 30 68  1  0
 32 69  1  0
 32 70  1  0
 33 71  1  0
 33 72  1  0
 35 73  1  0
 35 74  1  0
 35 75  1  0
 36 76  1  0
 36 77  1  0
 37 78  1  0
 37 79  1  0
M  END
$$$$
[H]O[C@]1([H])C([H])([H])C([H])([H])[C@@]([H])(N([H])c2nc(N([H])C([H])([H])C([H])([H])C([H])([H])C([H])([H])[H])nc([H])c2C(=O)N([H])C([H])([H])c2c([H])c([H])c([H])c3c([H])c([H])c([H])c([H])c23)C([H])([H])C1([H])[H]
     RDKit          3D

 66 69  0  0  0  0  0  0  0  0999 V2000
   -5.7691    4.9801    2.5392 C   0  0  0  0  0  0  0  0  0  0  0  0
   -6.2365    4.6482    1.1390 C   0  0  0  0  0  0  0  0  0  0  0  0
   -5.8771    3.2120    0.8639 C   0  0  0  0  0  0  0  0  0  0  0  0
   -4.3629    3.0240    0.9717 C   0  0  0  0  0  0  0  0  0  0  0  0
   -4.0396    1.6412    0.7049 N   0  0  0  0  0  0  0  0  0  0  0  0
   -2.6617    1.2527    0.7547 C   0  0  0  0  0  0  0  0  0  0  0  0
   -1.7262    2.1754    1.0441 N   0  0  0  0  0  0  0  0  0  0  0  0
   -0.4206    1.8938    1.1096 C   0  0  0  0  0  0  0  0  0  0  0  0
   -0.0209    0.5724    0.8633 C   0  0  0  0  0  0  0  0  0  0  0  0
    1.3896    0.2877    0.9346 C   0  0  0  0  0  0  0  0  0  0  0  0
    1.8488   -0.8712    0.7217 O   0  0  0  0  0  0  0  0  0  0  0  0
    2.3910    1.2575    1.2450 N   0  0  0  0  0  0  0  0  0  0  0  0
    3.7923    0.9325    1.2941 C   0  0  0  0  0  0  0  0  0  0  0  0
    4.4170    0.5863    0.0151 C   0  0  0  0  0  0  0  0  0  0  0  0
    3.7655    0.6255   -1.1930 C   0  0  0  0  0  0  0  0  0  0  0  0
    4.3996    0.3119   -2.3898 C   0  0  0  0  0  0  0  0  0  0  0  0
    5.7247   -0.0487   -2.3586 C   0  0  0  0  0  0  0  0  0  0  0  0
    6.3809   -0.0872   -1.1412 C   0  0  0  0  0  0  0  0  0  0  0  0
    7.7327   -0.4578   -1.1462 C   0  0  0  0  0  0  0  0  0  0  0  0
    8.4348   -0.5118    0.0365 C   0  0  0  0  0  0  0  0  0  0  0  0
    7.7909   -0.1992    1.2031 C   0  0  0  0  0  0  0  0  0  0  0  0
    6.4590    0.1710    1.2514 C   0  0  0  0  0  0  0  0  0  0  0  0
    5.7723    0.2192    0.0563 C   0  0  0  0  0  0  0  0  0  0  0  0
   -0.9454   -0.3945    0.5656 C   0  0  0  0  0  0  0  0  0  0  0  0
   -0.6791   -1.7616    0.2997 N   0  0  0  0  0  0  0  0  0  0  0  0
   -1.7815   -2.6758   -0.0062 C   0  0  1  0  0  0  0  0  0  0  0  0
   -2.5461   -2.2730   -1.2234 C   0  0  0  0  0  0  0  0  0  0  0  0
   -3.0314   -3.4798   -2.0345 C   0  0  0  0  0  0  0  0  0  0  0  0
   -1.9052   -4.3085   -2.5565 C   0  0  2  0  0  0  0  0  0  0  0  0
   -2.1733   -5.6853   -2.3885 O   0  0  0  0  0  0  0  0  0  0  0  0
   -0.6746   -4.0367   -1.6883 C   0  0  0  0  0  0  0  0  0  0  0  0
   -1.1980   -4.0492   -0.2457 C   0  0  0  0  0  0  0  0  0  0  0  0
   -2.2574    0.0145    0.5268 N   0  0  0  0  0  0  0  0  0  0  0  0
   -6.5297    5.5944    3.0412 H   0  0  0  0  0  0  0  0  0  0  0  0
   -5.6516    4.0424    3.1451 H   0  0  0  0  0  0  0  0  0  0  0  0
   -4.7629    5.4536    2.5147 H   0  0  0  0  0  0  0  0  0  0  0  0
   -7.3452    4.7210    1.0568 H   0  0  0  0  0  0  0  0  0  0  0  0
   -5.7646    5.3026    0.3858 H   0  0  0  0  0  0  0  0  0  0  0  0
   -6.1509    2.9037   -0.1705 H   0  0  0  0  0  0  0  0  0  0  0  0
   -6.3314    2.5617    1.6350 H   0  0  0  0  0  0  0  0  0  0  0  0
   -3.8525    3.7007    0.2624 H   0  0  0  0  0  0  0  0  0  0  0  0
   -4.0275    3.3451    1.9916 H   0  0  0  0  0  0  0  0  0  0  0  0
   -4.7749    0.9322    0.4808 H   0  0  0  0  0  0  0  0  0  0  0  0
    0.2746    2.6750    1.3449 H   0  0  0  0  0  0  0  0  0  0  0  0
    2.0909    2.2245    1.4401 H   0  0  0  0  0  0  0  0  0  0  0  0
    4.3330    1.8188    1.6851 H   0  0  0  0  0  0  0  0  0  0  0  0
    3.9591    0.1420    2.0705 H   0  0  0  0  0  0  0  0  0  0  0  0
    2.7150    0.9273   -1.2543 H   0  0  0  0  0  0  0  0  0  0  0  0
    3.8412    0.3582   -3.3104 H   0  0  0  0  0  0  0  0  0  0  0  0
    6.2704   -0.3061   -3.2803 H   0  0  0  0  0  0  0  0  0  0  0  0
    8.1996   -0.6956   -2.0874 H   0  0  0  0  0  0  0  0  0  0  0  0
    9.4893   -0.8040    0.0066 H   0  0  0  0  0  0  0  0  0  0  0  0
    8.3335   -0.2402    2.1223 H   0  0  0  0  0  0  0  0  0  0  0  0
    5.9572    0.4178    2.1752 H   0  0  0  0  0  0  0  0  0  0  0  0
    0.2700   -2.1383    0.3149 H   0  0  0  0  0  0  0  0  0  0  0  0
   -2.4431   -2.7337    0.8985 H   0  0  0  0  0  0  0  0  0  0  0  0
   -3.4963   -1.7701   -0.8838 H   0  0  0  0  0  0  0  0  0  0  0  0
   -1.9995   -1.5991   -1.9014 H   0  0  0  0  0  0  0  0  0  0  0  0
   -3.8056   -4.0508   -1.4938 H   0  0  0  0  0  0  0  0  0  0  0  0
   -3.5399   -3.0217   -2.9323 H   0  0  0  0  0  0  0  0  0  0  0  0
   -1.6634   -4.1104   -3.6205 H   0  0  0  0  0  0  0  0  0  0  0  0
   -3.0271   -5.8269   -1.8996 H   0  0  0  0  0  0  0  0  0  0  0  0
    0.0993   -4.7847   -1.8577 H   0  0  0  0  0  0  0  0  0  0  0  0
   -0.3518   -2.9947   -1.9737 H   0  0  0  0  0  0  0  0  0  0  0  0
   -1.9657   -4.8176   -0.1204 H   0  0  0  0  0  0  0  0  0  0  0  0
   -0.3419   -4.1927    0.4459 H   0  0  0  0  0  0  0  0  0  0  0  0
  1  2  1  0
  2  3  1  0
  3  4  1  0
  4  5  1  0
  5  6  1  0
  6  7  2  0
  7  8  1  0
  8  9  2  0
  9 10  1  0
 10 11  2  0
 10 12  1  0
 12 13  1  0
 13 14  1  0
 14 15  2  0
 15 16  1  0
 16 17  2  0
 17 18  1  0
 18 19  2  0
 19 20  1  0
 20 21  2  0
 21 22  1  0
 22 23  2  0
  9 24  1  0
 24 25  1  0
 25 26  1  0
 26 27  1  0
 27 28  1  0
 28 29  1  0
 29 30  1  0
 29 31  1  0
 31 32  1  0
 24 33  2  0
 33  6  1  0
 23 14  1  0
 32 26  1  0
 23 18  1  0
  1 34  1  0
  1 35  1  0
  1 36  1  0
  2 37  1  0
  2 38  1  0
  3 39  1  0
  3 40  1  0
  4 41  1  0
  4 42  1  0
  5 43  1  0
  8 44  1  0
 12 45  1  0
 13 46  1  0
 13 47  1  0
 15 48  1  0
 16 49  1  0
 17 50  1  0
 19 51  1  0
 20 52  1  0
 21 53  1  0
 22 54  1  0
 25 55  1  0
 26 56  1  1
 27 57  1  0
 27 58  1  0
 28 59  1  0
 28 60  1  0
 29 61  1  6
 30 62  1  0
 31 63  1  0
 31 64  1  0
 32 65  1  0
 32 66  1  0
M  END
$$$$
[H]OC1([H])C([H])([H])C([H])([H])C([H])(N([H])c2nc(N([H])C([H])([H])C([H])([H])c3c([H])c([H])c([H])c([H])c3[H])nc([H])c2-c2nc([H])c([H])c([H])c2[H])C([H])([H])C1([H])[H]
     RDKit          3D

 56 59  0  0  0  0  0  0  0  0999 V2000
   -4.9576   -3.0928    1.6561 O   0  0  0  0  0  0  0  0  0  0  0  0
   -4.2632   -3.3090    0.4536 C   0  0  0  0  0  0  0  0  0  0  0  0
   -2.7975   -3.0657    0.7336 C   0  0  0  0  0  0  0  0  0  0  0  0
   -2.6879   -1.5521    0.9950 C   0  0  0  0  0  0  0  0  0  0  0  0
   -2.9428   -0.9133   -0.3347 C   0  0  0  0  0  0  0  0  0  0  0  0
   -4.2964   -1.1675   -0.8776 C   0  0  0  0  0  0  0  0  0  0  0  0
   -4.8203   -2.5435   -0.6840 C   0  0  0  0  0  0  0  0  0  0  0  0
   -2.7032    0.5343   -0.2125 N   0  0  0  0  0  0  0  0  0  0  0  0
   -1.3591    0.9534   -0.0787 C   0  0  0  0  0  0  0  0  0  0  0  0
   -0.3659    0.0066   -0.1998 N   0  0  0  0  0  0  0  0  0  0  0  0
    0.9343    0.2750   -0.1593 C   0  0  0  0  0  0  0  0  0  0  0  0
    1.8804   -0.7828   -0.2955 N   0  0  0  0  0  0  0  0  0  0  0  0
    3.2846   -0.4354   -0.2441 C   0  0  0  0  0  0  0  0  0  0  0  0
    4.0816   -1.7277   -0.4115 C   0  0  0  0  0  0  0  0  0  0  0  0
    5.5168   -1.3795   -0.3597 C   0  0  0  0  0  0  0  0  0  0  0  0
    6.2383   -1.0533   -1.4867 C   0  0  0  0  0  0  0  0  0  0  0  0
    7.5839   -0.7317   -1.4011 C   0  0  0  0  0  0  0  0  0  0  0  0
    8.2313   -0.7312   -0.1836 C   0  0  0  0  0  0  0  0  0  0  0  0
    7.5033   -1.0584    0.9394 C   0  0  0  0  0  0  0  0  0  0  0  0
    6.1533   -1.3827    0.8663 C   0  0  0  0  0  0  0  0  0  0  0  0
    1.2937    1.5464    0.0102 N   0  0  0  0  0  0  0  0  0  0  0  0
    0.3786    2.5218    0.1365 C   0  0  0  0  0  0  0  0  0  0  0  0
   -1.0038    2.2542    0.0961 C   0  0  0  0  0  0  0  0  0  0  0  0
   -1.9555    3.3380    0.2228 C   0  0  0  0  0  0  0  0  0  0  0  0
   -1.5411    4.6670    0.0447 C   0  0  0  0  0  0  0  0  0  0  0  0
   -2.4008    5.7413    0.1306 C   0  0  0  0  0  0  0  0  0  0  0  0
   -3.7207    5.5574    0.3976 C   0  0  0  0  0  0  0  0  0  0  0  0
   -4.1356    4.2375    0.5746 C   0  0  0  0  0  0  0  0  0  0  0  0
   -3.2622    3.2307    0.4814 N   0  0  0  0  0  0  0  0  0  0  0  0
   -5.5791   -3.8430    1.8538 H   0  0  0  0  0  0  0  0  0  0  0  0
   -4.3529   -4.4062    0.2241 H   0  0  0  0  0  0  0  0  0  0  0  0
   -2.1442   -3.2881   -0.1145 H   0  0  0  0  0  0  0  0  0  0  0  0
   -2.5502   -3.6116    1.6619 H   0  0  0  0  0  0  0  0  0  0  0  0
   -1.7384   -1.2852    1.4264 H   0  0  0  0  0  0  0  0  0  0  0  0
   -3.5598   -1.3376    1.6734 H   0  0  0  0  0  0  0  0  0  0  0  0
   -2.1751   -1.2945   -1.0435 H   0  0  0  0  0  0  0  0  0  0  0  0
   -4.9854   -0.3838   -0.4786 H   0  0  0  0  0  0  0  0  0  0  0  0
   -4.2616   -0.9764   -1.9903 H   0  0  0  0  0  0  0  0  0  0  0  0
   -5.9345   -2.4580   -0.5257 H   0  0  0  0  0  0  0  0  0  0  0  0
   -4.7250   -3.1567   -1.6165 H   0  0  0  0  0  0  0  0  0  0  0  0
   -3.5090    1.1562   -0.2463 H   0  0  0  0  0  0  0  0  0  0  0  0
    1.5528   -1.7616   -0.4261 H   0  0  0  0  0  0  0  0  0  0  0  0
    3.4688    0.2492   -1.1160 H   0  0  0  0  0  0  0  0  0  0  0  0
    3.5791    0.0682    0.6891 H   0  0  0  0  0  0  0  0  0  0  0  0
    3.8609   -2.2122   -1.3763 H   0  0  0  0  0  0  0  0  0  0  0  0
    3.7683   -2.4091    0.4008 H   0  0  0  0  0  0  0  0  0  0  0  0
    5.7413   -1.0518   -2.4365 H   0  0  0  0  0  0  0  0  0  0  0  0
    8.1597   -0.4745   -2.2776 H   0  0  0  0  0  0  0  0  0  0  0  0
    9.2862   -0.4814   -0.0985 H   0  0  0  0  0  0  0  0  0  0  0  0
    8.0431   -1.0489    1.8857 H   0  0  0  0  0  0  0  0  0  0  0  0
    5.6397   -1.6293    1.7785 H   0  0  0  0  0  0  0  0  0  0  0  0
    0.6856    3.5501    0.2859 H   0  0  0  0  0  0  0  0  0  0  0  0
   -0.5261    4.8974   -0.1787 H   0  0  0  0  0  0  0  0  0  0  0  0
   -2.0437    6.7711   -0.0139 H   0  0  0  0  0  0  0  0  0  0  0  0
   -4.3848    6.3922    0.4636 H   0  0  0  0  0  0  0  0  0  0  0  0
   -5.1821    4.0882    0.7863 H   0  0  0  0  0  0  0  0  0  0  0  0
  1  2  1  0
  2  3  1  0
  3  4  1  0
  4  5  1  0
  5  6  1  0
  6  7  1  0
  5  8  1  0
  8  9  1  0
  9 10  2  0
 10 11  1  0
 11 12  1  0
 12 13  1  0
 13 14  1  0
 14 15  1  0
 15 16  2  0
 16 17  1  0
 17 18  2  0
 18 19  1  0
 19 20  2  0
 11 21  2  0
 21 22  1  0
 22 23  2  0
 23 24  1  0
 24 25  2  0
 25 26  1  0
 26 27  2  0
 27 28  1  0
 28 29  2  0
  7  2  1  0
 23  9  1  0
 29 24  1  0
 20 15  1  0
  1 30  1  0
  2 31  1  0
  3 32  1  0
  3 33  1  0
  4 34  1  0
  4 35  1  0
  5 36  1  0
  6 37  1  0
  6 38  1  0
  7 39  1  0
  7 40  1  0
  8 41  1  0
 12 42  1  0
 13 43  1  0
 13 44  1  0
 14 45  1  0
 14 46  1  0
 16 47  1  0
 17 48  1  0
 18 49  1  0
 19 50  1  0
 20 51  1  0
 22 52  1  0
 25 53  1  0
 26 54  1  0
 27 55  1  0
 28 56  1  0
M  END
$$$$
[H]c1c([H])c([H])c(-c2nn(C([H])([H])C3([H])C([H])([H])C([H])([H])C([H])(N([H])[H])C([H])([H])C3([H])[H])c3nc(N([H])C([H])(C([H])([H])[H])C([H])([H])[H])nc([H])c23)c([H])c1[H]
     RDKit          3D

 55 58  0  0  0  0  0  0  0  0999 V2000
   -5.2284   -2.6213   -0.1477 C   0  0  0  0  0  0  0  0  0  0  0  0
   -4.1179   -3.3981    0.5660 C   0  0  0  0  0  0  0  0  0  0  0  0
   -4.3654   -4.8721    0.3476 C   0  0  0  0  0  0  0  0  0  0  0  0
   -2.8414   -3.0719   -0.0304 N   0  0  0  0  0  0  0  0  0  0  0  0
   -2.3670   -1.7407   -0.0355 C   0  0  0  0  0  0  0  0  0  0  0  0
   -3.1241   -0.7898    0.5230 N   0  0  0  0  0  0  0  0  0  0  0  0
   -2.7095    0.4905    0.5396 C   0  0  0  0  0  0  0  0  0  0  0  0
   -1.5062    0.8464   -0.0137 C   0  0  0  0  0  0  0  0  0  0  0  0
   -0.8224    2.0358   -0.1518 C   0  0  0  0  0  0  0  0  0  0  0  0
    0.3162    1.7145   -0.7936 N   0  0  0  0  0  0  0  0  0  0  0  0
    0.3739    0.4232   -1.0542 N   0  0  0  0  0  0  0  0  0  0  0  0
    1.4333   -0.3176   -1.7302 C   0  0  0  0  0  0  0  0  0  0  0  0
    2.4688   -0.8157   -0.7264 C   0  0  0  0  0  0  0  0  0  0  0  0
    3.5122   -1.5564   -1.4736 C   0  0  0  0  0  0  0  0  0  0  0  0
    4.8681   -0.8564   -1.4390 C   0  0  0  0  0  0  0  0  0  0  0  0
    5.2028   -0.7978    0.0508 C   0  0  0  0  0  0  0  0  0  0  0  0
    6.5758   -0.3836    0.1928 N   0  0  0  0  0  0  0  0  0  0  0  0
    4.3113    0.2275    0.6523 C   0  0  0  0  0  0  0  0  0  0  0  0
    2.9414    0.3035    0.1272 C   0  0  0  0  0  0  0  0  0  0  0  0
   -0.7507   -0.1713   -0.5834 C   0  0  0  0  0  0  0  0  0  0  0  0
   -1.1602   -1.4516   -0.6026 N   0  0  0  0  0  0  0  0  0  0  0  0
   -1.2636    3.3519    0.3090 C   0  0  0  0  0  0  0  0  0  0  0  0
   -1.1515    4.4633   -0.5209 C   0  0  0  0  0  0  0  0  0  0  0  0
   -1.5459    5.7210   -0.1459 C   0  0  0  0  0  0  0  0  0  0  0  0
   -2.0854    5.9189    1.1168 C   0  0  0  0  0  0  0  0  0  0  0  0
   -2.2111    4.8408    1.9648 C   0  0  0  0  0  0  0  0  0  0  0  0
   -1.8030    3.5777    1.5579 C   0  0  0  0  0  0  0  0  0  0  0  0
   -4.8193   -2.2534   -1.1138 H   0  0  0  0  0  0  0  0  0  0  0  0
   -5.5263   -1.7966    0.5246 H   0  0  0  0  0  0  0  0  0  0  0  0
   -6.0925   -3.3023   -0.2897 H   0  0  0  0  0  0  0  0  0  0  0  0
   -4.1191   -3.1458    1.6604 H   0  0  0  0  0  0  0  0  0  0  0  0
   -4.9286   -4.9799   -0.5985 H   0  0  0  0  0  0  0  0  0  0  0  0
   -3.4012   -5.4189    0.2254 H   0  0  0  0  0  0  0  0  0  0  0  0
   -4.9080   -5.2552    1.2329 H   0  0  0  0  0  0  0  0  0  0  0  0
   -2.2416   -3.8261   -0.4729 H   0  0  0  0  0  0  0  0  0  0  0  0
   -3.3154    1.2514    0.9858 H   0  0  0  0  0  0  0  0  0  0  0  0
    1.9588    0.3913   -2.4238 H   0  0  0  0  0  0  0  0  0  0  0  0
    1.0525   -1.1305   -2.3549 H   0  0  0  0  0  0  0  0  0  0  0  0
    1.9196   -1.5492   -0.0840 H   0  0  0  0  0  0  0  0  0  0  0  0
    3.2116   -1.7575   -2.5057 H   0  0  0  0  0  0  0  0  0  0  0  0
    3.7040   -2.5686   -1.0099 H   0  0  0  0  0  0  0  0  0  0  0  0
    4.7862    0.1940   -1.7754 H   0  0  0  0  0  0  0  0  0  0  0  0
    5.5704   -1.4679   -2.0065 H   0  0  0  0  0  0  0  0  0  0  0  0
    5.0623   -1.8122    0.4717 H   0  0  0  0  0  0  0  0  0  0  0  0
    7.1528   -1.2426    0.3388 H   0  0  0  0  0  0  0  0  0  0  0  0
    6.9041    0.0499   -0.7014 H   0  0  0  0  0  0  0  0  0  0  0  0
    4.2934    0.0383    1.7666 H   0  0  0  0  0  0  0  0  0  0  0  0
    4.8436    1.2208    0.5680 H   0  0  0  0  0  0  0  0  0  0  0  0
    2.8495    1.2504   -0.4824 H   0  0  0  0  0  0  0  0  0  0  0  0
    2.2247    0.4652    0.9775 H   0  0  0  0  0  0  0  0  0  0  0  0
   -0.7271    4.3159   -1.5183 H   0  0  0  0  0  0  0  0  0  0  0  0
   -1.4656    6.5959   -0.7790 H   0  0  0  0  0  0  0  0  0  0  0  0
   -2.4018    6.9060    1.4285 H   0  0  0  0  0  0  0  0  0  0  0  0
   -2.6350    5.0207    2.9451 H   0  0  0  0  0  0  0  0  0  0  0  0
   -1.9020    2.7360    2.2246 H   0  0  0  0  0  0  0  0  0  0  0  0
  1  2  1  0
  2  3  1  0
  2  4  1  0
  4  5  1  0
  5  6  2  0
  6  7  1  0
  7  8  2  0
  8  9  1  0
  9 10  2  0
 10 11  1  0
 11 12  1  0
 12 13  1  0
 13 14  1  0
 14 15  1  0
 15 16  1  0
 16 17  1  0
 16 18  1  0
 18 19  1  0
 11 20  1  0
 20 21  2  0
  9 22  1  0
 22 23  2  0
 23 24  1  0
 24 25  2  0
 25 26  1  0
 26 27  2  0
 21  5  1  0
 27 22  1  0
 20  8  1  0
 19 13  1  0
  1 28  1  0
  1 29  1  0
  1 30  1  0
  2 31  1  0
  3 32  1  0
  3 33  1  0
  3 34  1  0
  4 35  1  0
  7 36  1  0
 12 37  1  0
 12 38  1  0
 13 39  1  0
 14 40  1  0
 14 41  1  0
 15 42  1  0
 15 43  1  0
 16 44  1  0
 17 45  1  0
 17 46  1  0
 18 47  1  0
 18 48  1  0
 19 49  1  0
 19 50  1  0
 23 51  1  0
 24 52  1  0
 25 53  1  0
 26 54  1  0
 27 55  1  0
M  END
$$$$
[H]O[C@]1([H])C([H])([H])C([H])([H])[C@@]([H])(N([H])c2nc(N([H])C([H])([H])C([H])([H])C([H])([H])C([H])([H])[H])nc([H])c2C(=O)N([H])C2([H])C([H])([H])C([H])([H])N(C([H])([H])C([H])([H])C([H])([H])c3c([H])c([H])c([H])c([H])c3[H])C([H])([H])C2([H])[H])C([H])([H])C1([H])[H]
     RDKit          3D

 81 84  0  0  0  0  0  0  0  0999 V2000
   -7.7348   -3.4527    1.7589 C   0  0  0  0  0  0  0  0  0  0  0  0
   -8.1780   -3.1967    0.3296 C   0  0  0  0  0  0  0  0  0  0  0  0
   -7.2951   -4.0265   -0.5654 C   0  0  0  0  0  0  0  0  0  0  0  0
   -5.8524   -3.6494   -0.4062 C   0  0  0  0  0  0  0  0  0  0  0  0
   -5.5984   -2.2681   -0.7344 N   0  0  0  0  0  0  0  0  0  0  0  0
   -4.2864   -1.7432   -0.6362 C   0  0  0  0  0  0  0  0  0  0  0  0
   -3.3020   -2.5619   -0.2323 N   0  0  0  0  0  0  0  0  0  0  0  0
   -2.0366   -2.1329   -0.1172 C   0  0  0  0  0  0  0  0  0  0  0  0
   -1.7458   -0.7966   -0.4282 C   0  0  0  0  0  0  0  0  0  0  0  0
   -0.3850   -0.3764   -0.2943 C   0  0  0  0  0  0  0  0  0  0  0  0
    0.0116    0.7820   -0.5413 O   0  0  0  0  0  0  0  0  0  0  0  0
    0.6261   -1.2730    0.1393 N   0  0  0  0  0  0  0  0  0  0  0  0
    2.0217   -0.8406    0.2767 C   0  0  0  0  0  0  0  0  0  0  0  0
    2.3729   -1.0291    1.7281 C   0  0  0  0  0  0  0  0  0  0  0  0
    3.8092   -0.6146    1.9252 C   0  0  0  0  0  0  0  0  0  0  0  0
    4.7132   -1.4649    1.1331 N   0  0  0  0  0  0  0  0  0  0  0  0
    5.5331   -0.5883    0.3752 C   0  0  0  0  0  0  0  0  0  0  0  0
    6.5606   -1.1844   -0.5048 C   0  0  0  0  0  0  0  0  0  0  0  0
    7.3530   -0.1515   -1.2431 C   0  0  0  0  0  0  0  0  0  0  0  0
    8.0943    0.7980   -0.4356 C   0  0  0  0  0  0  0  0  0  0  0  0
    9.3855    0.5319   -0.0355 C   0  0  0  0  0  0  0  0  0  0  0  0
   10.0981    1.4386    0.7304 C   0  0  0  0  0  0  0  0  0  0  0  0
    9.5110    2.6254    1.0999 C   0  0  0  0  0  0  0  0  0  0  0  0
    8.2174    2.9219    0.7145 C   0  0  0  0  0  0  0  0  0  0  0  0
    7.5376    1.9893   -0.0512 C   0  0  0  0  0  0  0  0  0  0  0  0
    3.9789   -2.3773    0.3153 C   0  0  0  0  0  0  0  0  0  0  0  0
    2.9406   -1.6943   -0.5441 C   0  0  0  0  0  0  0  0  0  0  0  0
   -2.7343    0.0437   -0.8386 C   0  0  0  0  0  0  0  0  0  0  0  0
   -2.5684    1.3920   -1.1764 N   0  0  0  0  0  0  0  0  0  0  0  0
   -3.7247    2.2002   -1.6080 C   0  0  1  0  0  0  0  0  0  0  0  0
   -4.7768    2.2712   -0.5502 C   0  0  0  0  0  0  0  0  0  0  0  0
   -5.3173    3.6694   -0.3608 C   0  0  0  0  0  0  0  0  0  0  0  0
   -4.2411    4.6815   -0.0817 C   0  0  2  0  0  0  0  0  0  0  0  0
   -4.6398    5.9231   -0.5996 O   0  0  0  0  0  0  0  0  0  0  0  0
   -2.9356    4.3342   -0.7485 C   0  0  0  0  0  0  0  0  0  0  0  0
   -3.2776    3.5630   -2.0188 C   0  0  0  0  0  0  0  0  0  0  0  0
   -4.0035   -0.4708   -0.9312 N   0  0  0  0  0  0  0  0  0  0  0  0
   -6.9447   -2.7488    2.0754 H   0  0  0  0  0  0  0  0  0  0  0  0
   -8.5751   -3.3716    2.4681 H   0  0  0  0  0  0  0  0  0  0  0  0
   -7.3233   -4.4836    1.8597 H   0  0  0  0  0  0  0  0  0  0  0  0
   -9.2360   -3.4322    0.1976 H   0  0  0  0  0  0  0  0  0  0  0  0
   -8.0298   -2.1368    0.0941 H   0  0  0  0  0  0  0  0  0  0  0  0
   -7.3873   -5.1054   -0.3179 H   0  0  0  0  0  0  0  0  0  0  0  0
   -7.6091   -3.9200   -1.6176 H   0  0  0  0  0  0  0  0  0  0  0  0
   -5.5322   -3.8783    0.6429 H   0  0  0  0  0  0  0  0  0  0  0  0
   -5.2054   -4.2673   -1.0611 H   0  0  0  0  0  0  0  0  0  0  0  0
   -6.3982   -1.6797   -1.0407 H   0  0  0  0  0  0  0  0  0  0  0  0
   -1.3009   -2.8443    0.2113 H   0  0  0  0  0  0  0  0  0  0  0  0
    0.4694   -2.2673    0.3851 H   0  0  0  0  0  0  0  0  0  0  0  0
    2.1152    0.2079   -0.0030 H   0  0  0  0  0  0  0  0  0  0  0  0
    2.2344   -2.0724    2.0417 H   0  0  0  0  0  0  0  0  0  0  0  0
    1.7626   -0.4026    2.4084 H   0  0  0  0  0  0  0  0  0  0  0  0
    4.0364   -0.7239    3.0131 H   0  0  0  0  0  0  0  0  0  0  0  0
    3.9638    0.4338    1.6703 H   0  0  0  0  0  0  0  0  0  0  0  0
    4.8417    0.0447   -0.2572 H   0  0  0  0  0  0  0  0  0  0  0  0
    5.9814    0.1652    1.0883 H   0  0  0  0  0  0  0  0  0  0  0  0
    6.2102   -1.9289   -1.2149 H   0  0  0  0  0  0  0  0  0  0  0  0
    7.2950   -1.7240    0.1652 H   0  0  0  0  0  0  0  0  0  0  0  0
    6.6307    0.3440   -1.9582 H   0  0  0  0  0  0  0  0  0  0  0  0
    8.0644   -0.6870   -1.9399 H   0  0  0  0  0  0  0  0  0  0  0  0
    9.8599   -0.3962   -0.3184 H   0  0  0  0  0  0  0  0  0  0  0  0
   11.1063    1.2453    1.0503 H   0  0  0  0  0  0  0  0  0  0  0  0
   10.0620    3.3347    1.6959 H   0  0  0  0  0  0  0  0  0  0  0  0
    7.7959    3.8644    1.0258 H   0  0  0  0  0  0  0  0  0  0  0  0
    6.5383    2.2202   -0.3478 H   0  0  0  0  0  0  0  0  0  0  0  0
    3.5167   -3.1992    0.9255 H   0  0  0  0  0  0  0  0  0  0  0  0
    4.6775   -2.8927   -0.3623 H   0  0  0  0  0  0  0  0  0  0  0  0
    2.3263   -2.5224   -0.9920 H   0  0  0  0  0  0  0  0  0  0  0  0
    3.4004   -1.0663   -1.3297 H   0  0  0  0  0  0  0  0  0  0  0  0
   -1.6853    1.8881   -1.1496 H   0  0  0  0  0  0  0  0  0  0  0  0
   -4.1128    1.6918   -2.5292 H   0  0  0  0  0  0  0  0  0  0  0  0
   -4.3566    1.8911    0.4168 H   0  0  0  0  0  0  0  0  0  0  0  0
   -5.6228    1.6223   -0.8121 H   0  0  0  0  0  0  0  0  0  0  0  0
   -5.8695    3.9612   -1.2720 H   0  0  0  0  0  0  0  0  0  0  0  0
   -6.0237    3.6407    0.4741 H   0  0  0  0  0  0  0  0  0  0  0  0
   -4.1498    4.7779    1.0132 H   0  0  0  0  0  0  0  0  0  0  0  0
   -4.5445    6.6525    0.0438 H   0  0  0  0  0  0  0  0  0  0  0  0
   -2.3014    3.6674   -0.1283 H   0  0  0  0  0  0  0  0  0  0  0  0
   -2.3543    5.2310   -1.0437 H   0  0  0  0  0  0  0  0  0  0  0  0
   -2.3822    3.5362   -2.6675 H   0  0  0  0  0  0  0  0  0  0  0  0
   -4.0746    4.0582   -2.5885 H   0  0  0  0  0  0  0  0  0  0  0  0
  1  2  1  0
  2  3  1  0
  3  4  1  0
  4  5  1  0
  5  6  1  0
  6  7  2  0
  7  8  1  0
  8  9  2  0
  9 10  1  0
 10 11  2  0
 10 12  1  0
 12 13  1  0
 13 14  1  0
 14 15  1  0
 15 16  1  0
 16 17  1  0
 17 18  1  0
 18 19  1  0
 19 20  1  0
 20 21  2  0
 21 22  1  0
 22 23  2  0
 23 24  1  0
 24 25  2  0
 16 26  1  0
 26 27  1  0
  9 28  1  0
 28 29  1  0
 29 30  1  0
 30 31  1  0
 31 32  1  0
 32 33  1  0
 33 34  1  0
 33 35  1  0
 35 36  1  0
 28 37  2  0
 37  6  1  0
 27 13  1  0
 36 30  1  0
 25 20  1  0
  1 38  1  0
  1 39  1  0
  1 40  1  0
  2 41  1  0
  2 42  1  0
  3 43  1  0
  3 44  1  0
  4 45  1  0
  4 46  1  0
  5 47  1  0
  8 48  1  0
 12 49  1  0
 13 50  1  0
 14 51  1  0
 14 52  1  0
 15 53  1  0
 15 54  1  0
 17 55  1  0
 17 56  1  0
 18 57  1  0
 18 58  1  0
 19 59  1  0
 19 60  1  0
 21 61  1  0
 22 62  1  0
 23 63  1  0
 24 64  1  0
 25 65  1  0
 26 66  1  0
 26 67  1  0
 27 68  1  0
 27 69  1  0
 29 70  1  0
 30 71  1  6
 31 72  1  0
 31 73  1  0
 32 74  1  0
 32 75  1  0
 33 76  1  1
 34 77  1  0
 35 78  1  0
 35 79  1  0
 36 80  1  0
 36 81  1  0
M  END
$$$$
[H]O[C@]1([H])C([H])([H])C([H])([H])[C@@]([H])(N([H])c2nc(N([H])C([H])([H])C([H])([H])C([H])([H])C([H])([H])[H])nc([H])c2-c2nc(N3C([H])([H])C([H])([H])C([H])([H])C3([H])[H])c([H])nc2[H])C([H])([H])C1([H])[H]
     RDKit          3D

 63 66  0  0  0  0  0  0  0  0999 V2000
   -5.2730   -4.7407   -0.2722 C   0  0  0  0  0  0  0  0  0  0  0  0
   -3.8301   -4.6229   -0.7137 C   0  0  0  0  0  0  0  0  0  0  0  0
   -3.4181   -3.1557   -0.8260 C   0  0  0  0  0  0  0  0  0  0  0  0
   -3.5529   -2.4441    0.4757 C   0  0  0  0  0  0  0  0  0  0  0  0
   -3.1801   -1.0585    0.4096 N   0  0  0  0  0  0  0  0  0  0  0  0
   -1.8429   -0.6541    0.1492 C   0  0  0  0  0  0  0  0  0  0  0  0
   -0.8646   -1.5261   -0.0393 N   0  0  0  0  0  0  0  0  0  0  0  0
    0.3849   -1.1712   -0.2842 C   0  0  0  0  0  0  0  0  0  0  0  0
    0.7166    0.2008   -0.3527 C   0  0  0  0  0  0  0  0  0  0  0  0
   -0.2764    1.1239   -0.1565 C   0  0  0  0  0  0  0  0  0  0  0  0
   -0.0492    2.4994   -0.0785 N   0  0  0  0  0  0  0  0  0  0  0  0
   -1.1083    3.4884    0.0642 C   0  0  1  0  0  0  0  0  0  0  0  0
   -2.1569    3.4298   -0.9901 C   0  0  0  0  0  0  0  0  0  0  0  0
   -2.9242    4.7475   -0.9398 C   0  0  0  0  0  0  0  0  0  0  0  0
   -3.2984    5.0336    0.4917 C   0  0  2  0  0  0  0  0  0  0  0  0
   -2.4708    5.9988    1.0639 O   0  0  0  0  0  0  0  0  0  0  0  0
   -3.1954    3.7915    1.3168 C   0  0  0  0  0  0  0  0  0  0  0  0
   -1.7296    3.4139    1.4238 C   0  0  0  0  0  0  0  0  0  0  0  0
   -1.5272    0.6560    0.0865 N   0  0  0  0  0  0  0  0  0  0  0  0
    2.1075    0.4611   -0.6226 C   0  0  0  0  0  0  0  0  0  0  0  0
    2.5350    1.4686   -1.4250 C   0  0  0  0  0  0  0  0  0  0  0  0
    3.8497    1.5774   -1.6870 N   0  0  0  0  0  0  0  0  0  0  0  0
    4.7414    0.7128   -1.1744 C   0  0  0  0  0  0  0  0  0  0  0  0
    4.3466   -0.3301   -0.3525 C   0  0  0  0  0  0  0  0  0  0  0  0
    3.0334   -0.4055   -0.1143 N   0  0  0  0  0  0  0  0  0  0  0  0
    5.2894   -1.2451    0.1896 N   0  0  0  0  0  0  0  0  0  0  0  0
    6.7064   -1.3172    0.0508 C   0  0  0  0  0  0  0  0  0  0  0  0
    7.0619   -2.7899    0.1246 C   0  0  0  0  0  0  0  0  0  0  0  0
    5.8232   -3.4916    0.6685 C   0  0  0  0  0  0  0  0  0  0  0  0
    4.8919   -2.3604    1.0592 C   0  0  0  0  0  0  0  0  0  0  0  0
   -5.5983   -5.7773   -0.4911 H   0  0  0  0  0  0  0  0  0  0  0  0
   -5.9378   -4.0511   -0.8031 H   0  0  0  0  0  0  0  0  0  0  0  0
   -5.4009   -4.5615    0.8168 H   0  0  0  0  0  0  0  0  0  0  0  0
   -3.7403   -5.0611   -1.7189 H   0  0  0  0  0  0  0  0  0  0  0  0
   -3.2024   -5.1518    0.0068 H   0  0  0  0  0  0  0  0  0  0  0  0
   -4.0797   -2.7000   -1.5866 H   0  0  0  0  0  0  0  0  0  0  0  0
   -2.3870   -3.1707   -1.2052 H   0  0  0  0  0  0  0  0  0  0  0  0
   -2.8748   -2.9094    1.2482 H   0  0  0  0  0  0  0  0  0  0  0  0
   -4.5711   -2.5454    0.9082 H   0  0  0  0  0  0  0  0  0  0  0  0
   -3.8980   -0.2962    0.5543 H   0  0  0  0  0  0  0  0  0  0  0  0
    1.1367   -1.9238   -0.4288 H   0  0  0  0  0  0  0  0  0  0  0  0
    0.9239    2.8717   -0.0734 H   0  0  0  0  0  0  0  0  0  0  0  0
   -0.6729    4.5281   -0.0018 H   0  0  0  0  0  0  0  0  0  0  0  0
   -2.8709    2.6296   -0.7724 H   0  0  0  0  0  0  0  0  0  0  0  0
   -1.7507    3.2576   -2.0110 H   0  0  0  0  0  0  0  0  0  0  0  0
   -3.8125    4.6706   -1.5893 H   0  0  0  0  0  0  0  0  0  0  0  0
   -2.2688    5.5712   -1.3359 H   0  0  0  0  0  0  0  0  0  0  0  0
   -4.3410    5.4244    0.4788 H   0  0  0  0  0  0  0  0  0  0  0  0
   -2.6805    6.0577    2.0266 H   0  0  0  0  0  0  0  0  0  0  0  0
   -3.7941    2.9438    0.9909 H   0  0  0  0  0  0  0  0  0  0  0  0
   -3.5371    4.0237    2.3679 H   0  0  0  0  0  0  0  0  0  0  0  0
   -1.5628    2.4282    1.8776 H   0  0  0  0  0  0  0  0  0  0  0  0
   -1.2411    4.1638    2.1171 H   0  0  0  0  0  0  0  0  0  0  0  0
    1.8878    2.1746   -1.8983 H   0  0  0  0  0  0  0  0  0  0  0  0
    5.8144    0.7843   -1.3756 H   0  0  0  0  0  0  0  0  0  0  0  0
    7.0705   -0.8783   -0.9019 H   0  0  0  0  0  0  0  0  0  0  0  0
    7.1714   -0.7607    0.8936 H   0  0  0  0  0  0  0  0  0  0  0  0
    7.3024   -3.1480   -0.8837 H   0  0  0  0  0  0  0  0  0  0  0  0
    7.8854   -2.9619    0.8475 H   0  0  0  0  0  0  0  0  0  0  0  0
    5.3888   -4.1061   -0.1351 H   0  0  0  0  0  0  0  0  0  0  0  0
    6.0401   -4.0882    1.5607 H   0  0  0  0  0  0  0  0  0  0  0  0
    3.8410   -2.6640    0.8668 H   0  0  0  0  0  0  0  0  0  0  0  0
    4.9705   -2.0643    2.1049 H   0  0  0  0  0  0  0  0  0  0  0  0
  1  2  1  0
  2  3  1  0
  3  4  1  0
  4  5  1  0
  5  6  1  0
  6  7  2  0
  7  8  1  0
  8  9  2  0
  9 10  1  0
 10 11  1  0
 11 12  1  0
 12 13  1  0
 13 14  1  0
 14 15  1  0
 15 16  1  0
 15 17  1  0
 17 18  1  0
 10 19  2  0
  9 20  1  0
 20 21  2  0
 21 22  1  0
 22 23  2  0
 23 24  1  0
 24 25  2  0
 24 26  1  0
 26 27  1  0
 27 28  1  0
 28 29  1  0
 29 30  1  0
 19  6  1  0
 25 20  1  0
 30 26  1  0
 18 12  1  0
  1 31  1  0
  1 32  1  0
  1 33  1  0
  2 34  1  0
  2 35  1  0
  3 36  1  0
  3 37  1  0
  4 38  1  0
  4 39  1  0
  5 40  1  0
  8 41  1  0
 11 42  1  0
 12 43  1  1
 13 44  1  0
 13 45  1  0
 14 46  1  0
 14 47  1  0
 15 48  1  6
 16 49  1  0
 17 50  1  0
 17 51  1  0
 18 52  1  0
 18 53  1  0
 21 54  1  0
 23 55  1  0
 27 56  1  0
 27 57  1  0
 28 58  1  0
 28 59  1  0
 29 60  1  0
 29 61  1  0
 30 62  1  0
 30 63  1  0
M  END
$$$$
[H]OC1([H])C([H])([H])C([H])([H])C([H])(n2nc(-c3c([H])c([H])c(N([H])C(=O)N4C([H])([H])C([H])([H])OC([H])([H])C4([H])[H])c([H])c3[H])c3c([H])nc(N([H])C([H])([H])C([H])([H])C([H])([H])C([H])([H])[H])nc32)C([H])([H])C1([H])[H]
     RDKit          3D

 71 75  0  0  0  0  0  0  0  0999 V2000
   -7.5226    2.6932   -1.3270 C   0  0  0  0  0  0  0  0  0  0  0  0
   -7.3013    3.6706   -0.1938 C   0  0  0  0  0  0  0  0  0  0  0  0
   -7.1133    2.9079    1.1030 C   0  0  0  0  0  0  0  0  0  0  0  0
   -5.9258    1.9828    1.0350 C   0  0  0  0  0  0  0  0  0  0  0  0
   -4.7069    2.7285    0.7817 N   0  0  0  0  0  0  0  0  0  0  0  0
   -3.4937    1.9961    0.6852 C   0  0  0  0  0  0  0  0  0  0  0  0
   -2.3624    2.7110    0.4480 N   0  0  0  0  0  0  0  0  0  0  0  0
   -1.1722    2.1018    0.3415 C   0  0  0  0  0  0  0  0  0  0  0  0
   -1.1450    0.7204    0.4826 C   0  0  0  0  0  0  0  0  0  0  0  0
   -0.1483   -0.2125    0.4372 C   0  0  0  0  0  0  0  0  0  0  0  0
   -0.7005   -1.4275    0.6434 N   0  0  0  0  0  0  0  0  0  0  0  0
   -2.0070   -1.3237    0.8198 N   0  0  0  0  0  0  0  0  0  0  0  0
   -2.9527   -2.4086    1.0686 C   0  0  0  0  0  0  0  0  0  0  0  0
   -2.1674   -3.6807    1.2697 C   0  0  0  0  0  0  0  0  0  0  0  0
   -3.0488   -4.8981    1.3093 C   0  0  0  0  0  0  0  0  0  0  0  0
   -3.6797   -5.0786   -0.0439 C   0  0  0  0  0  0  0  0  0  0  0  0
   -2.9723   -6.0691   -0.7226 O   0  0  0  0  0  0  0  0  0  0  0  0
   -3.6822   -3.8196   -0.8706 C   0  0  0  0  0  0  0  0  0  0  0  0
   -3.9298   -2.5876   -0.0494 C   0  0  0  0  0  0  0  0  0  0  0  0
   -2.3097    0.0014    0.7249 C   0  0  0  0  0  0  0  0  0  0  0  0
   -3.4591    0.6553    0.8209 N   0  0  0  0  0  0  0  0  0  0  0  0
    1.2730    0.0076    0.2091 C   0  0  0  0  0  0  0  0  0  0  0  0
    1.9514   -0.8044   -0.6700 C   0  0  0  0  0  0  0  0  0  0  0  0
    3.2868   -0.6525   -0.9279 C   0  0  0  0  0  0  0  0  0  0  0  0
    4.0294    0.3572   -0.2930 C   0  0  0  0  0  0  0  0  0  0  0  0
    5.4065    0.4958   -0.5891 N   0  0  0  0  0  0  0  0  0  0  0  0
    6.3678    1.2958    0.0285 C   0  0  0  0  0  0  0  0  0  0  0  0
    6.0807    2.0328    0.9947 O   0  0  0  0  0  0  0  0  0  0  0  0
    7.7215    1.2563   -0.4765 N   0  0  0  0  0  0  0  0  0  0  0  0
    8.7222    2.0789    0.1574 C   0  0  0  0  0  0  0  0  0  0  0  0
   10.0370    1.3353    0.1118 C   0  0  0  0  0  0  0  0  0  0  0  0
   10.4282    0.9728   -1.1536 O   0  0  0  0  0  0  0  0  0  0  0  0
    9.4373    0.9683   -2.1023 C   0  0  0  0  0  0  0  0  0  0  0  0
    8.1100    0.4278   -1.5886 C   0  0  0  0  0  0  0  0  0  0  0  0
    3.3131    1.1445    0.5759 C   0  0  0  0  0  0  0  0  0  0  0  0
    1.9579    0.9889    0.8367 C   0  0  0  0  0  0  0  0  0  0  0  0
   -7.9274    3.2848   -2.1899 H   0  0  0  0  0  0  0  0  0  0  0  0
   -6.6229    2.1643   -1.6365 H   0  0  0  0  0  0  0  0  0  0  0  0
   -8.3177    1.9539   -1.0681 H   0  0  0  0  0  0  0  0  0  0  0  0
   -6.4448    4.3108   -0.4370 H   0  0  0  0  0  0  0  0  0  0  0  0
   -8.2373    4.2555   -0.0813 H   0  0  0  0  0  0  0  0  0  0  0  0
   -6.9942    3.6523    1.9203 H   0  0  0  0  0  0  0  0  0  0  0  0
   -8.0127    2.3087    1.2859 H   0  0  0  0  0  0  0  0  0  0  0  0
   -6.0978    1.2044    0.2893 H   0  0  0  0  0  0  0  0  0  0  0  0
   -5.8150    1.5154    2.0303 H   0  0  0  0  0  0  0  0  0  0  0  0
   -4.7322    3.7665    0.6758 H   0  0  0  0  0  0  0  0  0  0  0  0
   -0.2488    2.6218    0.1542 H   0  0  0  0  0  0  0  0  0  0  0  0
   -3.4962   -2.1341    2.0190 H   0  0  0  0  0  0  0  0  0  0  0  0
   -1.4695   -3.6226    2.1180 H   0  0  0  0  0  0  0  0  0  0  0  0
   -1.5163   -3.7966    0.3545 H   0  0  0  0  0  0  0  0  0  0  0  0
   -2.3955   -5.7658    1.5497 H   0  0  0  0  0  0  0  0  0  0  0  0
   -3.8052   -4.8503    2.1182 H   0  0  0  0  0  0  0  0  0  0  0  0
   -4.7026   -5.4854    0.1224 H   0  0  0  0  0  0  0  0  0  0  0  0
   -2.0984   -6.2525   -0.3102 H   0  0  0  0  0  0  0  0  0  0  0  0
   -2.7909   -3.7373   -1.5281 H   0  0  0  0  0  0  0  0  0  0  0  0
   -4.5599   -3.9083   -1.5761 H   0  0  0  0  0  0  0  0  0  0  0  0
   -4.9606   -2.6352    0.3404 H   0  0  0  0  0  0  0  0  0  0  0  0
   -3.8914   -1.7180   -0.7419 H   0  0  0  0  0  0  0  0  0  0  0  0
    1.3672   -1.5982   -1.1689 H   0  0  0  0  0  0  0  0  0  0  0  0
    3.7924   -1.3077   -1.6245 H   0  0  0  0  0  0  0  0  0  0  0  0
    5.7517   -0.1040   -1.4125 H   0  0  0  0  0  0  0  0  0  0  0  0
    8.4854    2.2133    1.2456 H   0  0  0  0  0  0  0  0  0  0  0  0
    8.8162    3.0848   -0.3383 H   0  0  0  0  0  0  0  0  0  0  0  0
   10.8030    1.9267    0.6571 H   0  0  0  0  0  0  0  0  0  0  0  0
    9.9009    0.4029    0.7088 H   0  0  0  0  0  0  0  0  0  0  0  0
    9.2387    1.9423   -2.5698 H   0  0  0  0  0  0  0  0  0  0  0  0
    9.7746    0.2672   -2.9148 H   0  0  0  0  0  0  0  0  0  0  0  0
    8.2335   -0.6094   -1.2086 H   0  0  0  0  0  0  0  0  0  0  0  0
    7.4053    0.4755   -2.4444 H   0  0  0  0  0  0  0  0  0  0  0  0
    3.8036    1.9558    1.1072 H   0  0  0  0  0  0  0  0  0  0  0  0
    1.4428    1.6504    1.5433 H   0  0  0  0  0  0  0  0  0  0  0  0
  1  2  1  0
  2  3  1  0
  3  4  1  0
  4  5  1  0
  5  6  1  0
  6  7  2  0
  7  8  1  0
  8  9  2  0
  9 10  1  0
 10 11  2  0
 11 12  1  0
 12 13  1  0
 13 14  1  0
 14 15  1  0
 15 16  1  0
 16 17  1  0
 16 18  1  0
 18 19  1  0
 12 20  1  0
 20 21  2  0
 10 22  1  0
 22 23  2  0
 23 24  1  0
 24 25  2  0
 25 26  1  0
 26 27  1  0
 27 28  2  0
 27 29  1  0
 29 30  1  0
 30 31  1  0
 31 32  1  0
 32 33  1  0
 33 34  1  0
 25 35  1  0
 35 36  2  0
 21  6  1  0
 36 22  1  0
 20  9  1  0
 34 29  1  0
 19 13  1  0
  1 37  1  0
  1 38  1  0
  1 39  1  0
  2 40  1  0
  2 41  1  0
  3 42  1  0
  3 43  1  0
  4 44  1  0
  4 45  1  0
  5 46  1  0
  8 47  1  0
 13 48  1  0
 14 49  1  0
 14 50  1  0
 15 51  1  0
 15 52  1  0
 16 53  1  0
 17 54  1  0
 18 55  1  0
 18 56  1  0
 19 57  1  0
 19 58  1  0
 23 59  1  0
 24 60  1  0
 26 61  1  0
 30 62  1  0
 30 63  1  0
 31 64  1  0
 31 65  1  0
 33 66  1  0
 33 67  1  0
 34 68  1  0
 34 69  1  0
 35 70  1  0
 36 71  1  0
M  END
$$$$
[H]c1nc(N([H])[H])c2c(-c3c([H])c([H])c(N([H])C(=O)c4c([H])n(C([H])(C([H])([H])[H])C([H])([H])[H])c(=O)n(-c5nc(C([H])([H])[H])c([H])c([H])c5[H])c4=O)c([H])c3[H])c([H])c(C3([H])C([H])([H])C([H])([H])N(C(=O)C([H])(C([H])([H])[H])C([H])([H])[H])C([H])([H])C3([H])[H])n2n1
     RDKit          3D

 87 92  0  0  0  0  0  0  0  0999 V2000
    9.9955   -0.9664    0.2449 C   0  0  0  0  0  0  0  0  0  0  0  0
   10.4593    0.3292    0.8778 C   0  0  0  0  0  0  0  0  0  0  0  0
   11.8267    0.6332    0.3096 C   0  0  0  0  0  0  0  0  0  0  0  0
    9.5576    1.4598    0.6606 C   0  0  0  0  0  0  0  0  0  0  0  0
   10.0010    2.4574   -0.0063 O   0  0  0  0  0  0  0  0  0  0  0  0
    8.2361    1.5168    1.1378 N   0  0  0  0  0  0  0  0  0  0  0  0
    7.6227    0.4670    1.9058 C   0  0  0  0  0  0  0  0  0  0  0  0
    6.4023   -0.1099    1.1932 C   0  0  0  0  0  0  0  0  0  0  0  0
    6.0623    0.8239    0.0529 C   0  0  0  0  0  0  0  0  0  0  0  0
    5.9498    2.2226    0.6249 C   0  0  0  0  0  0  0  0  0  0  0  0
    7.3908    2.6804    0.8676 C   0  0  0  0  0  0  0  0  0  0  0  0
    4.8057    0.4147   -0.6299 C   0  0  0  0  0  0  0  0  0  0  0  0
    3.5617    0.3179   -0.0718 C   0  0  0  0  0  0  0  0  0  0  0  0
    2.6802   -0.0988   -1.0727 C   0  0  0  0  0  0  0  0  0  0  0  0
    1.2554   -0.2776   -0.8854 C   0  0  0  0  0  0  0  0  0  0  0  0
    0.7619   -1.2287    0.0092 C   0  0  0  0  0  0  0  0  0  0  0  0
   -0.5863   -1.3633    0.2180 C   0  0  0  0  0  0  0  0  0  0  0  0
   -1.5426   -0.5740   -0.4367 C   0  0  0  0  0  0  0  0  0  0  0  0
   -2.9180   -0.7629   -0.1703 N   0  0  0  0  0  0  0  0  0  0  0  0
   -4.0163   -0.1522   -0.7476 C   0  0  0  0  0  0  0  0  0  0  0  0
   -4.0003    0.7112   -1.6461 O   0  0  0  0  0  0  0  0  0  0  0  0
   -5.3776   -0.5238   -0.2897 C   0  0  0  0  0  0  0  0  0  0  0  0
   -5.6926   -1.8128    0.0790 C   0  0  0  0  0  0  0  0  0  0  0  0
   -6.9418   -2.1490    0.4990 N   0  0  0  0  0  0  0  0  0  0  0  0
   -7.2600   -3.4908    0.8809 C   0  0  0  0  0  0  0  0  0  0  0  0
   -7.1653   -3.6637    2.3825 C   0  0  0  0  0  0  0  0  0  0  0  0
   -8.6017   -3.9636    0.3999 C   0  0  0  0  0  0  0  0  0  0  0  0
   -7.8805   -1.1799    0.5480 C   0  0  0  0  0  0  0  0  0  0  0  0
   -9.0596   -1.4454    0.9334 O   0  0  0  0  0  0  0  0  0  0  0  0
   -7.6326    0.0970    0.2005 N   0  0  0  0  0  0  0  0  0  0  0  0
   -8.6645    1.0713    0.2740 C   0  0  0  0  0  0  0  0  0  0  0  0
   -9.7615    1.0595   -0.5644 C   0  0  0  0  0  0  0  0  0  0  0  0
  -10.7595    2.0085   -0.4877 C   0  0  0  0  0  0  0  0  0  0  0  0
  -10.6657    3.0109    0.4597 C   0  0  0  0  0  0  0  0  0  0  0  0
   -9.5635    3.0057    1.2870 C   0  0  0  0  0  0  0  0  0  0  0  0
   -9.4399    4.0730    2.3136 C   0  0  0  0  0  0  0  0  0  0  0  0
   -8.6064    2.0593    1.1818 N   0  0  0  0  0  0  0  0  0  0  0  0
   -6.3775    0.4227   -0.2189 C   0  0  0  0  0  0  0  0  0  0  0  0
   -6.1171    1.6082   -0.5499 O   0  0  0  0  0  0  0  0  0  0  0  0
   -1.0405    0.3536   -1.3102 C   0  0  0  0  0  0  0  0  0  0  0  0
    0.3407    0.5051   -1.5362 C   0  0  0  0  0  0  0  0  0  0  0  0
    3.3935   -0.2538   -2.2297 C   0  0  0  0  0  0  0  0  0  0  0  0
    3.0656   -0.6469   -3.5065 C   0  0  0  0  0  0  0  0  0  0  0  0
    1.7530   -1.0117   -3.8507 N   0  0  0  0  0  0  0  0  0  0  0  0
    4.0130   -0.7106   -4.4483 N   0  0  0  0  0  0  0  0  0  0  0  0
    5.2775   -0.3890   -4.1321 C   0  0  0  0  0  0  0  0  0  0  0  0
    5.5995   -0.0072   -2.8883 N   0  0  0  0  0  0  0  0  0  0  0  0
    4.6842    0.0686   -1.9222 N   0  0  0  0  0  0  0  0  0  0  0  0
    9.8241   -1.7641    0.9984 H   0  0  0  0  0  0  0  0  0  0  0  0
    9.0568   -0.8519   -0.3292 H   0  0  0  0  0  0  0  0  0  0  0  0
   10.7440   -1.3849   -0.4683 H   0  0  0  0  0  0  0  0  0  0  0  0
   10.6378    0.1328    1.9778 H   0  0  0  0  0  0  0  0  0  0  0  0
   12.3872   -0.3255    0.2936 H   0  0  0  0  0  0  0  0  0  0  0  0
   11.8008    1.1228   -0.6637 H   0  0  0  0  0  0  0  0  0  0  0  0
   12.3601    1.2679    1.0703 H   0  0  0  0  0  0  0  0  0  0  0  0
    8.2686   -0.3673    2.1745 H   0  0  0  0  0  0  0  0  0  0  0  0
    7.2837    0.9666    2.8646 H   0  0  0  0  0  0  0  0  0  0  0  0
    6.5912   -1.1286    0.8144 H   0  0  0  0  0  0  0  0  0  0  0  0
    5.5520   -0.1694    1.9307 H   0  0  0  0  0  0  0  0  0  0  0  0
    6.9269    0.8200   -0.6365 H   0  0  0  0  0  0  0  0  0  0  0  0
    5.3861    2.2104    1.5803 H   0  0  0  0  0  0  0  0  0  0  0  0
    5.4134    2.9156   -0.0523 H   0  0  0  0  0  0  0  0  0  0  0  0
    7.4159    3.3208    1.7643 H   0  0  0  0  0  0  0  0  0  0  0  0
    7.7227    3.2471   -0.0028 H   0  0  0  0  0  0  0  0  0  0  0  0
    3.2571    0.5144    0.9471 H   0  0  0  0  0  0  0  0  0  0  0  0
    1.4994   -1.8353    0.5124 H   0  0  0  0  0  0  0  0  0  0  0  0
   -0.9573   -2.0951    0.9054 H   0  0  0  0  0  0  0  0  0  0  0  0
   -3.1425   -1.4890    0.5962 H   0  0  0  0  0  0  0  0  0  0  0  0
   -4.9201   -2.5612    0.0278 H   0  0  0  0  0  0  0  0  0  0  0  0
   -6.4834   -4.1574    0.4406 H   0  0  0  0  0  0  0  0  0  0  0  0
   -6.3111   -3.0211    2.7219 H   0  0  0  0  0  0  0  0  0  0  0  0
   -8.1201   -3.3855    2.8439 H   0  0  0  0  0  0  0  0  0  0  0  0
   -6.9173   -4.6962    2.6440 H   0  0  0  0  0  0  0  0  0  0  0  0
   -8.5320   -5.0661    0.1920 H   0  0  0  0  0  0  0  0  0  0  0  0
   -8.9339   -3.4975   -0.5273 H   0  0  0  0  0  0  0  0  0  0  0  0
   -9.3492   -3.8761    1.2269 H   0  0  0  0  0  0  0  0  0  0  0  0
   -9.8740    0.2903   -1.3221 H   0  0  0  0  0  0  0  0  0  0  0  0
  -11.6108    1.9698   -1.1640 H   0  0  0  0  0  0  0  0  0  0  0  0
  -11.4362    3.7803    0.5511 H   0  0  0  0  0  0  0  0  0  0  0  0
   -9.6341    3.6947    3.3327 H   0  0  0  0  0  0  0  0  0  0  0  0
   -8.3590    4.3817    2.3076 H   0  0  0  0  0  0  0  0  0  0  0  0
  -10.0147    4.9732    2.0593 H   0  0  0  0  0  0  0  0  0  0  0  0
   -1.7224    1.0015   -1.8512 H   0  0  0  0  0  0  0  0  0  0  0  0
    0.6524    1.2693   -2.2374 H   0  0  0  0  0  0  0  0  0  0  0  0
    1.3361   -1.9250   -3.5053 H   0  0  0  0  0  0  0  0  0  0  0  0
    1.1172   -0.4375   -4.4455 H   0  0  0  0  0  0  0  0  0  0  0  0
    6.0602   -0.4397   -4.9053 H   0  0  0  0  0  0  0  0  0  0  0  0
  1  2  1  0
  2  3  1  0
  2  4  1  0
  4  5  2  0
  4  6  1  0
  6  7  1  0
  7  8  1  0
  8  9  1  0
  9 10  1  0
 10 11  1  0
  9 12  1  0
 12 13  2  0
 13 14  1  0
 14 15  1  0
 15 16  2  0
 16 17  1  0
 17 18  2  0
 18 19  1  0
 19 20  1  0
 20 21  2  0
 20 22  1  0
 22 23  2  0
 23 24  1  0
 24 25  1  0
 25 26  1  0
 25 27  1  0
 24 28  1  0
 28 29  2  0
 28 30  1  0
 30 31  1  0
 31 32  2  0
 32 33  1  0
 33 34  2  0
 34 35  1  0
 35 36  1  0
 35 37  2  0
 30 38  1  0
 38 39  2  0
 18 40  1  0
 40 41  2  0
 14 42  2  0
 42 43  1  0
 43 44  1  0
 43 45  2  0
 45 46  1  0
 46 47  2  0
 47 48  1  0
 11  6  1  0
 48 12  1  0
 41 15  1  0
 48 42  1  0
 38 22  1  0
 37 31  1  0
  1 49  1  0
  1 50  1  0
  1 51  1  0
  2 52  1  0
  3 53  1  0
  3 54  1  0
  3 55  1  0
  7 56  1  0
  7 57  1  0
  8 58  1  0
  8 59  1  0
  9 60  1  0
 10 61  1  0
 10 62  1  0
 11 63  1  0
 11 64  1  0
 13 65  1  0
 16 66  1  0
 17 67  1  0
 19 68  1  0
 23 69  1  0
 25 70  1  0
 26 71  1  0
 26 72  1  0
 26 73  1  0
 27 74  1  0
 27 75  1  0
 27 76  1  0
 32 77  1  0
 33 78  1  0
 34 79  1  0
 36 80  1  0
 36 81  1  0
 36 82  1  0
 40 83  1  0
 41 84  1  0
 44 85  1  0
 44 86  1  0
 46 87  1  0
M  END
$$$$
[H]c1nc(N([H])[H])c(C(=O)N([H])[C@@]2([H])C([H])([H])C([H])([H])C([H])([H])[C@]2([H])OC([H])([H])c2c([H])c([H])c(C#CC([H])([H])C([H])([H])N3C([H])([H])C([H])([H])N(C([H])([H])[H])C([H])([H])C3([H])[H])c([H])c2[H])c([H])c1-c1c([H])nn(C([H])([H])[H])c1[H]
     RDKit          3D

 79 83  0  0  0  0  0  0  0  0999 V2000
   10.7169    2.4757    0.3257 C   0  0  0  0  0  0  0  0  0  0  0  0
    9.5950    2.0140    1.0905 N   0  0  0  0  0  0  0  0  0  0  0  0
    8.5207    2.9513    1.2001 C   0  0  0  0  0  0  0  0  0  0  0  0
    7.4422    2.7864    0.1774 C   0  0  0  0  0  0  0  0  0  0  0  0
    7.0834    1.4026   -0.0631 N   0  0  0  0  0  0  0  0  0  0  0  0
    7.4738    1.0735   -1.4001 C   0  0  0  0  0  0  0  0  0  0  0  0
    7.1621   -0.3459   -1.7949 C   0  0  0  0  0  0  0  0  0  0  0  0
    5.7213   -0.5787   -1.6987 C   0  0  0  0  0  0  0  0  0  0  0  0
    4.5336   -0.7829   -1.6369 C   0  0  0  0  0  0  0  0  0  0  0  0
    3.1022   -1.0422   -1.5850 C   0  0  0  0  0  0  0  0  0  0  0  0
    2.2833   -0.2410   -0.8483 C   0  0  0  0  0  0  0  0  0  0  0  0
    0.9058   -0.5067   -0.8113 C   0  0  0  0  0  0  0  0  0  0  0  0
    0.3701   -1.5600   -1.5045 C   0  0  0  0  0  0  0  0  0  0  0  0
   -1.0747   -1.8163   -1.4484 C   0  0  0  0  0  0  0  0  0  0  0  0
   -1.4563   -2.6772   -0.4539 O   0  0  0  0  0  0  0  0  0  0  0  0
   -2.7626   -2.9707   -0.3319 C   0  0  1  0  0  0  0  0  0  0  0  0
   -3.0968   -4.4341   -0.6517 C   0  0  0  0  0  0  0  0  0  0  0  0
   -4.5694   -4.4428   -0.2405 C   0  0  0  0  0  0  0  0  0  0  0  0
   -4.4157   -3.8377    1.1635 C   0  0  0  0  0  0  0  0  0  0  0  0
   -3.4363   -2.6718    0.9451 C   0  0  2  0  0  0  0  0  0  0  0  0
   -4.3118   -1.4939    0.8299 N   0  0  0  0  0  0  0  0  0  0  0  0
   -4.2957   -0.4782    1.8114 C   0  0  0  0  0  0  0  0  0  0  0  0
   -3.5099   -0.5927    2.8037 O   0  0  0  0  0  0  0  0  0  0  0  0
   -5.1342    0.6919    1.7421 C   0  0  0  0  0  0  0  0  0  0  0  0
   -6.0082    0.8756    0.6934 C   0  0  0  0  0  0  0  0  0  0  0  0
   -6.8024    2.0311    0.6742 C   0  0  0  0  0  0  0  0  0  0  0  0
   -6.6783    2.9351    1.7016 C   0  0  0  0  0  0  0  0  0  0  0  0
   -5.8288    2.7650    2.7289 N   0  0  0  0  0  0  0  0  0  0  0  0
   -5.0701    1.6528    2.7394 C   0  0  0  0  0  0  0  0  0  0  0  0
   -4.1655    1.4406    3.8040 N   0  0  0  0  0  0  0  0  0  0  0  0
   -7.7276    2.2267   -0.4350 C   0  0  0  0  0  0  0  0  0  0  0  0
   -8.1370    3.4078   -0.9853 C   0  0  0  0  0  0  0  0  0  0  0  0
   -8.9856    3.1126   -1.9776 N   0  0  0  0  0  0  0  0  0  0  0  0
   -9.1414    1.8002   -2.0917 N   0  0  0  0  0  0  0  0  0  0  0  0
   -9.9672    1.0586   -3.0329 C   0  0  0  0  0  0  0  0  0  0  0  0
   -8.3633    1.2335   -1.1366 C   0  0  0  0  0  0  0  0  0  0  0  0
    1.1987   -2.3593   -2.2414 C   0  0  0  0  0  0  0  0  0  0  0  0
    2.5616   -2.1068   -2.2859 C   0  0  0  0  0  0  0  0  0  0  0  0
    7.6920    0.5871    0.9413 C   0  0  0  0  0  0  0  0  0  0  0  0
    9.1969    0.6688    0.8131 C   0  0  0  0  0  0  0  0  0  0  0  0
   10.4499    3.3078   -0.3411 H   0  0  0  0  0  0  0  0  0  0  0  0
   11.0893    1.6469   -0.3285 H   0  0  0  0  0  0  0  0  0  0  0  0
   11.5210    2.8317    1.0183 H   0  0  0  0  0  0  0  0  0  0  0  0
    8.9651    3.9767    1.0487 H   0  0  0  0  0  0  0  0  0  0  0  0
    8.0994    2.9942    2.2467 H   0  0  0  0  0  0  0  0  0  0  0  0
    6.5552    3.3449    0.5044 H   0  0  0  0  0  0  0  0  0  0  0  0
    7.7970    3.2932   -0.7592 H   0  0  0  0  0  0  0  0  0  0  0  0
    6.8557    1.7269   -2.0835 H   0  0  0  0  0  0  0  0  0  0  0  0
    8.5247    1.3418   -1.6312 H   0  0  0  0  0  0  0  0  0  0  0  0
    7.6679   -1.0928   -1.1615 H   0  0  0  0  0  0  0  0  0  0  0  0
    7.5441   -0.4880   -2.8267 H   0  0  0  0  0  0  0  0  0  0  0  0
    2.7041    0.5811   -0.3079 H   0  0  0  0  0  0  0  0  0  0  0  0
    0.3238    0.1742   -0.2049 H   0  0  0  0  0  0  0  0  0  0  0  0
   -1.3404   -2.3200   -2.4211 H   0  0  0  0  0  0  0  0  0  0  0  0
   -1.6515   -0.8662   -1.4658 H   0  0  0  0  0  0  0  0  0  0  0  0
   -3.3131   -2.3976   -1.1397 H   0  0  0  0  0  0  0  0  0  0  0  0
   -2.9618   -4.6559   -1.7108 H   0  0  0  0  0  0  0  0  0  0  0  0
   -2.5854   -5.1213    0.0334 H   0  0  0  0  0  0  0  0  0  0  0  0
   -4.9901   -5.4443   -0.1837 H   0  0  0  0  0  0  0  0  0  0  0  0
   -5.1426   -3.7087   -0.8187 H   0  0  0  0  0  0  0  0  0  0  0  0
   -5.3648   -3.5082    1.5801 H   0  0  0  0  0  0  0  0  0  0  0  0
   -3.9380   -4.6282    1.7789 H   0  0  0  0  0  0  0  0  0  0  0  0
   -2.8191   -2.6300    1.8367 H   0  0  0  0  0  0  0  0  0  0  0  0
   -4.9493   -1.4052    0.0200 H   0  0  0  0  0  0  0  0  0  0  0  0
   -6.1250    0.1843   -0.1233 H   0  0  0  0  0  0  0  0  0  0  0  0
   -7.2949    3.8196    1.6747 H   0  0  0  0  0  0  0  0  0  0  0  0
   -3.1861    1.7785    3.7504 H   0  0  0  0  0  0  0  0  0  0  0  0
   -4.4930    0.9379    4.6492 H   0  0  0  0  0  0  0  0  0  0  0  0
   -7.8068    4.3809   -0.6456 H   0  0  0  0  0  0  0  0  0  0  0  0
  -10.9650    0.8436   -2.6207 H   0  0  0  0  0  0  0  0  0  0  0  0
   -9.4299    0.1229   -3.2855 H   0  0  0  0  0  0  0  0  0  0  0  0
  -10.0969    1.6383   -3.9786 H   0  0  0  0  0  0  0  0  0  0  0  0
   -8.2546    0.1686   -0.9498 H   0  0  0  0  0  0  0  0  0  0  0  0
    0.8066   -3.1877   -2.7915 H   0  0  0  0  0  0  0  0  0  0  0  0
    3.2542   -2.7179   -2.8594 H   0  0  0  0  0  0  0  0  0  0  0  0
    7.4281    1.0101    1.9331 H   0  0  0  0  0  0  0  0  0  0  0  0
    7.3362   -0.4592    0.9420 H   0  0  0  0  0  0  0  0  0  0  0  0
    9.5499    0.2875   -0.1664 H   0  0  0  0  0  0  0  0  0  0  0  0
    9.6159   -0.0121    1.5853 H   0  0  0  0  0  0  0  0  0  0  0  0
  1  2  1  0
  2  3  1  0
  3  4  1  0
  4  5  1  0
  5  6  1  0
  6  7  1  0
  7  8  1  0
  8  9  3  0
  9 10  1  0
 10 11  2  0
 11 12  1  0
 12 13  2  0
 13 14  1  0
 14 15  1  0
 15 16  1  0
 16 17  1  0
 17 18  1  0
 18 19  1  0
 19 20  1  0
 20 21  1  0
 21 22  1  0
 22 23  2  0
 22 24  1  0
 24 25  2  0
 25 26  1  0
 26 27  2  0
 27 28  1  0
 28 29  2  0
 29 30  1  0
 26 31  1  0
 31 32  1  0
 32 33  2  0
 33 34  1  0
 34 35  1  0
 34 36  1  0
 13 37  1  0
 37 38  2  0
  5 39  1  0
 39 40  1  0
 40  2  1  0
 38 10  1  0
 20 16  1  0
 29 24  1  0
 36 31  2  0
  1 41  1  0
  1 42  1  0
  1 43  1  0
  3 44  1  0
  3 45  1  0
  4 46  1  0
  4 47  1  0
  6 48  1  0
  6 49  1  0
  7 50  1  0
  7 51  1  0
 11 52  1  0
 12 53  1  0
 14 54  1  0
 14 55  1  0
 16 56  1  6
 17 57  1  0
 17 58  1  0
 18 59  1  0
 18 60  1  0
 19 61  1  0
 19 62  1  0
 20 63  1  1
 21 64  1  0
 25 65  1  0
 27 66  1  0
 30 67  1  0
 30 68  1  0
 32 69  1  0
 35 70  1  0
 35 71  1  0
 35 72  1  0
 36 73  1  0
 37 74  1  0
 38 75  1  0
 39 76  1  0
 39 77  1  0
 40 78  1  0
 40 79  1  0
M  END
$$$$
[H]O[C@]1([H])C([H])([H])C([H])([H])[C@@]([H])(N([H])C([H])([H])c2c([H])c([H])c([H])c(-c3c([H])nc(N([H])[H])c(C(=O)N([H])[C@@]4([H])C([H])([H])C([H])([H])C([H])([H])[C@]4([H])OC([H])([H])c4c([H])c([H])c(C([H])([H])[H])c(C([H])([H])[H])c4[H])c3[H])c2[H])C([H])([H])C1([H])[H]
     RDKit          3D

 82 86  0  0  0  0  0  0  0  0999 V2000
  -11.7275   -1.9377    0.4367 C   0  0  0  0  0  0  0  0  0  0  0  0
  -10.2899   -1.6085    0.6691 C   0  0  0  0  0  0  0  0  0  0  0  0
   -9.3862   -2.5786    1.0119 C   0  0  0  0  0  0  0  0  0  0  0  0
   -8.0839   -2.2450    1.2166 C   0  0  0  0  0  0  0  0  0  0  0  0
   -7.6077   -0.9343    1.0929 C   0  0  0  0  0  0  0  0  0  0  0  0
   -6.1742   -0.6206    1.3279 C   0  0  0  0  0  0  0  0  0  0  0  0
   -5.5168   -0.7055    0.1065 O   0  0  0  0  0  0  0  0  0  0  0  0
   -4.1577   -0.4305    0.2201 C   0  0  1  0  0  0  0  0  0  0  0  0
   -3.4159   -1.6363   -0.3123 C   0  0  0  0  0  0  0  0  0  0  0  0
   -3.6265   -1.5053   -1.8053 C   0  0  0  0  0  0  0  0  0  0  0  0
   -3.8215   -0.0290   -2.0717 C   0  0  0  0  0  0  0  0  0  0  0  0
   -3.7005    0.6552   -0.7284 C   0  0  2  0  0  0  0  0  0  0  0  0
   -2.3148    0.9499   -0.4682 N   0  0  0  0  0  0  0  0  0  0  0  0
   -1.8846    2.2646   -0.1450 C   0  0  0  0  0  0  0  0  0  0  0  0
   -2.7575    3.1760   -0.0907 O   0  0  0  0  0  0  0  0  0  0  0  0
   -0.4997    2.6305    0.1281 C   0  0  0  0  0  0  0  0  0  0  0  0
    0.5207    1.7065    0.0900 C   0  0  0  0  0  0  0  0  0  0  0  0
    1.8106    2.0935    0.3493 C   0  0  0  0  0  0  0  0  0  0  0  0
    2.0598    3.4103    0.6456 C   0  0  0  0  0  0  0  0  0  0  0  0
    1.0617    4.3181    0.6840 N   0  0  0  0  0  0  0  0  0  0  0  0
   -0.2100    3.9490    0.4306 C   0  0  0  0  0  0  0  0  0  0  0  0
   -1.2577    4.9165    0.4743 N   0  0  0  0  0  0  0  0  0  0  0  0
    2.8570    1.0840    0.2989 C   0  0  0  0  0  0  0  0  0  0  0  0
    2.5328   -0.2049    0.6654 C   0  0  0  0  0  0  0  0  0  0  0  0
    3.4836   -1.2222    0.6355 C   0  0  0  0  0  0  0  0  0  0  0  0
    4.7819   -0.9129    0.2247 C   0  0  0  0  0  0  0  0  0  0  0  0
    5.1264    0.3681   -0.1453 C   0  0  0  0  0  0  0  0  0  0  0  0
    6.4957    0.7283   -0.5924 C   0  0  0  0  0  0  0  0  0  0  0  0
    7.3258   -0.4317   -0.6700 N   0  0  0  0  0  0  0  0  0  0  0  0
    8.6792   -0.1646   -1.1013 C   0  0  1  0  0  0  0  0  0  0  0  0
    9.4677    0.7002   -0.1966 C   0  0  0  0  0  0  0  0  0  0  0  0
   10.4540   -0.0449    0.6719 C   0  0  0  0  0  0  0  0  0  0  0  0
    9.9179   -1.4440    0.9002 C   0  0  2  0  0  0  0  0  0  0  0  0
   10.7108   -2.0562    1.8680 O   0  0  0  0  0  0  0  0  0  0  0  0
   10.0916   -2.1616   -0.4397 C   0  0  0  0  0  0  0  0  0  0  0  0
    9.2910   -1.4735   -1.4798 C   0  0  0  0  0  0  0  0  0  0  0  0
    4.1364    1.3313   -0.0932 C   0  0  0  0  0  0  0  0  0  0  0  0
   -8.5480    0.0060    0.7477 C   0  0  0  0  0  0  0  0  0  0  0  0
   -9.8772   -0.3003    0.5329 C   0  0  0  0  0  0  0  0  0  0  0  0
  -10.8854    0.7446    0.1565 C   0  0  0  0  0  0  0  0  0  0  0  0
  -12.1120   -1.4564   -0.4875 H   0  0  0  0  0  0  0  0  0  0  0  0
  -11.9121   -3.0108    0.4451 H   0  0  0  0  0  0  0  0  0  0  0  0
  -12.2806   -1.4513    1.2912 H   0  0  0  0  0  0  0  0  0  0  0  0
   -9.7216   -3.6049    1.1163 H   0  0  0  0  0  0  0  0  0  0  0  0
   -7.3556   -2.9909    1.4873 H   0  0  0  0  0  0  0  0  0  0  0  0
   -5.7663   -1.4753    1.9425 H   0  0  0  0  0  0  0  0  0  0  0  0
   -6.0261    0.3315    1.8455 H   0  0  0  0  0  0  0  0  0  0  0  0
   -3.8742   -0.1999    1.2744 H   0  0  0  0  0  0  0  0  0  0  0  0
   -3.9298   -2.5449    0.0720 H   0  0  0  0  0  0  0  0  0  0  0  0
   -2.3375   -1.6324   -0.0681 H   0  0  0  0  0  0  0  0  0  0  0  0
   -4.5958   -2.0197   -2.0286 H   0  0  0  0  0  0  0  0  0  0  0  0
   -2.7766   -1.9321   -2.3750 H   0  0  0  0  0  0  0  0  0  0  0  0
   -2.9846    0.3633   -2.7024 H   0  0  0  0  0  0  0  0  0  0  0  0
   -4.8112    0.2032   -2.5184 H   0  0  0  0  0  0  0  0  0  0  0  0
   -4.3422    1.5586   -0.6635 H   0  0  0  0  0  0  0  0  0  0  0  0
   -1.5958    0.2029   -0.5128 H   0  0  0  0  0  0  0  0  0  0  0  0
    0.3248    0.6588   -0.1452 H   0  0  0  0  0  0  0  0  0  0  0  0
    3.0934    3.7288    0.8551 H   0  0  0  0  0  0  0  0  0  0  0  0
   -1.5130    5.4938   -0.3540 H   0  0  0  0  0  0  0  0  0  0  0  0
   -1.7961    5.0656    1.3501 H   0  0  0  0  0  0  0  0  0  0  0  0
    1.5467   -0.5081    0.9924 H   0  0  0  0  0  0  0  0  0  0  0  0
    3.2712   -2.2280    0.9111 H   0  0  0  0  0  0  0  0  0  0  0  0
    5.5060   -1.7154    0.2089 H   0  0  0  0  0  0  0  0  0  0  0  0
    6.3633    1.0846   -1.6595 H   0  0  0  0  0  0  0  0  0  0  0  0
    6.9047    1.5802   -0.0618 H   0  0  0  0  0  0  0  0  0  0  0  0
    6.9116   -1.2240   -1.1694 H   0  0  0  0  0  0  0  0  0  0  0  0
    8.5487    0.4043   -2.0759 H   0  0  0  0  0  0  0  0  0  0  0  0
    8.8051    1.2500    0.5034 H   0  0  0  0  0  0  0  0  0  0  0  0
   10.0810    1.4099   -0.8137 H   0  0  0  0  0  0  0  0  0  0  0  0
   11.3954   -0.1614    0.0975 H   0  0  0  0  0  0  0  0  0  0  0  0
   10.6357    0.5163    1.5891 H   0  0  0  0  0  0  0  0  0  0  0  0
    8.8692   -1.3577    1.1921 H   0  0  0  0  0  0  0  0  0  0  0  0
   10.0900   -2.3521    2.5897 H   0  0  0  0  0  0  0  0  0  0  0  0
    9.7052   -3.1935   -0.3042 H   0  0  0  0  0  0  0  0  0  0  0  0
   11.1800   -2.1929   -0.6550 H   0  0  0  0  0  0  0  0  0  0  0  0
    8.5209   -2.1529   -1.8999 H   0  0  0  0  0  0  0  0  0  0  0  0
    9.9938   -1.2754   -2.3431 H   0  0  0  0  0  0  0  0  0  0  0  0
    4.3878    2.3467   -0.3805 H   0  0  0  0  0  0  0  0  0  0  0  0
   -8.2456    1.0383    0.6357 H   0  0  0  0  0  0  0  0  0  0  0  0
  -10.5543    1.6830    0.6606 H   0  0  0  0  0  0  0  0  0  0  0  0
  -10.7694    0.9282   -0.9326 H   0  0  0  0  0  0  0  0  0  0  0  0
  -11.8952    0.4475    0.4414 H   0  0  0  0  0  0  0  0  0  0  0  0
  1  2  1  0
  2  3  2  0
  3  4  1  0
  4  5  2  0
  5  6  1  0
  6  7  1  0
  7  8  1  0
  8  9  1  0
  9 10  1  0
 10 11  1  0
 11 12  1  0
 12 13  1  0
 13 14  1  0
 14 15  2  0
 14 16  1  0
 16 17  2  0
 17 18  1  0
 18 19  2  0
 19 20  1  0
 20 21  2  0
 21 22  1  0
 18 23  1  0
 23 24  2  0
 24 25  1  0
 25 26  2  0
 26 27  1  0
 27 28  1  0
 28 29  1  0
 29 30  1  0
 30 31  1  0
 31 32  1  0
 32 33  1  0
 33 34  1  0
 33 35  1  0
 35 36  1  0
 27 37  2  0
  5 38  1  0
 38 39  2  0
 39 40  1  0
 39  2  1  0
 12  8  1  0
 21 16  1  0
 37 23  1  0
 36 30  1  0
  1 41  1  0
  1 42  1  0
  1 43  1  0
  3 44  1  0
  4 45  1  0
  6 46  1  0
  6 47  1  0
  8 48  1  1
  9 49  1  0
  9 50  1  0
 10 51  1  0
 10 52  1  0
 11 53  1  0
 11 54  1  0
 12 55  1  6
 13 56  1  0
 17 57  1  0
 19 58  1  0
 22 59  1  0
 22 60  1  0
 24 61  1  0
 25 62  1  0
 26 63  1  0
 28 64  1  0
 28 65  1  0
 29 66  1  0
 30 67  1  6
 31 68  1  0
 31 69  1  0
 32 70  1  0
 32 71  1  0
 33 72  1  1
 34 73  1  0
 35 74  1  0
 35 75  1  0
 36 76  1  0
 36 77  1  0
 37 78  1  0
 38 79  1  0
 40 80  1  0
 40 81  1  0
 40 82  1  0
M  END
$$$$
[H]OC([H])([H])c1nc(-c2c([H])nc(N([H])C([H])([H])C([H])([H])C([H])([H])C([H])([H])[H])nc2N([H])[C@]2([H])C([H])([H])C([H])([H])[C@@]([H])(O[H])C([H])([H])C2([H])[H])sc1[H]
     RDKit          3D

 53 55  0  0  0  0  0  0  0  0999 V2000
    5.7424   -2.4491   -0.7862 C   0  0  0  0  0  0  0  0  0  0  0  0
    4.8414   -3.3412    0.0201 C   0  0  0  0  0  0  0  0  0  0  0  0
    4.5109   -2.7877    1.3700 C   0  0  0  0  0  0  0  0  0  0  0  0
    3.8129   -1.4707    1.3329 C   0  0  0  0  0  0  0  0  0  0  0  0
    2.5692   -1.5619    0.6241 N   0  0  0  0  0  0  0  0  0  0  0  0
    1.7058   -0.4331    0.4464 C   0  0  0  0  0  0  0  0  0  0  0  0
    2.1172    0.7334    0.9805 N   0  0  0  0  0  0  0  0  0  0  0  0
    1.3473    1.8151    0.8419 C   0  0  0  0  0  0  0  0  0  0  0  0
    0.1429    1.7252    0.1550 C   0  0  0  0  0  0  0  0  0  0  0  0
   -0.6474    2.9710    0.0486 C   0  0  0  0  0  0  0  0  0  0  0  0
   -0.2850    4.1543    0.5594 N   0  0  0  0  0  0  0  0  0  0  0  0
   -1.0357    5.1863    0.4182 C   0  0  0  0  0  0  0  0  0  0  0  0
   -0.6768    6.5577    0.9773 C   0  0  0  0  0  0  0  0  0  0  0  0
   -1.2083    6.7480    2.2305 O   0  0  0  0  0  0  0  0  0  0  0  0
   -2.2143    5.0339   -0.2699 C   0  0  0  0  0  0  0  0  0  0  0  0
   -2.1333    3.3800   -0.6607 S   0  0  0  0  0  0  0  0  0  0  0  0
   -0.2610    0.5625   -0.3740 C   0  0  0  0  0  0  0  0  0  0  0  0
   -1.4594    0.3628   -1.0880 N   0  0  0  0  0  0  0  0  0  0  0  0
   -1.7386   -0.9841   -1.5950 C   0  0  1  0  0  0  0  0  0  0  0  0
   -1.8275   -2.0040   -0.4882 C   0  0  0  0  0  0  0  0  0  0  0  0
   -3.0713   -2.8345   -0.7112 C   0  0  0  0  0  0  0  0  0  0  0  0
   -4.2780   -1.9027   -0.5878 C   0  0  2  0  0  0  0  0  0  0  0  0
   -5.4312   -2.6804   -0.7518 O   0  0  0  0  0  0  0  0  0  0  0  0
   -4.2436   -0.8700   -1.6783 C   0  0  0  0  0  0  0  0  0  0  0  0
   -2.9492   -1.0029   -2.4693 C   0  0  0  0  0  0  0  0  0  0  0  0
    0.5578   -0.5316   -0.2117 N   0  0  0  0  0  0  0  0  0  0  0  0
    5.2642   -1.5151   -1.1092 H   0  0  0  0  0  0  0  0  0  0  0  0
    6.6990   -2.2536   -0.2461 H   0  0  0  0  0  0  0  0  0  0  0  0
    6.0220   -3.0000   -1.7111 H   0  0  0  0  0  0  0  0  0  0  0  0
    5.3618   -4.3108    0.1681 H   0  0  0  0  0  0  0  0  0  0  0  0
    3.9214   -3.5242   -0.5810 H   0  0  0  0  0  0  0  0  0  0  0  0
    5.4458   -2.7046    1.9615 H   0  0  0  0  0  0  0  0  0  0  0  0
    3.8437   -3.5143    1.8765 H   0  0  0  0  0  0  0  0  0  0  0  0
    4.4433   -0.6470    0.9392 H   0  0  0  0  0  0  0  0  0  0  0  0
    3.5713   -1.1880    2.3835 H   0  0  0  0  0  0  0  0  0  0  0  0
    2.2556   -2.4710    0.2117 H   0  0  0  0  0  0  0  0  0  0  0  0
    1.6515    2.7807    1.2640 H   0  0  0  0  0  0  0  0  0  0  0  0
    0.4322    6.6564    1.0481 H   0  0  0  0  0  0  0  0  0  0  0  0
   -1.0190    7.3383    0.2916 H   0  0  0  0  0  0  0  0  0  0  0  0
   -2.0297    7.2748    2.1592 H   0  0  0  0  0  0  0  0  0  0  0  0
   -2.9806    5.7979   -0.4902 H   0  0  0  0  0  0  0  0  0  0  0  0
   -2.1618    1.0754   -1.2892 H   0  0  0  0  0  0  0  0  0  0  0  0
   -0.8628   -1.2729   -2.2331 H   0  0  0  0  0  0  0  0  0  0  0  0
   -1.8932   -1.5313    0.5135 H   0  0  0  0  0  0  0  0  0  0  0  0
   -0.9125   -2.6442   -0.4500 H   0  0  0  0  0  0  0  0  0  0  0  0
   -3.0464   -3.3473   -1.6921 H   0  0  0  0  0  0  0  0  0  0  0  0
   -3.1518   -3.6406    0.0588 H   0  0  0  0  0  0  0  0  0  0  0  0
   -4.2630   -1.4147    0.3864 H   0  0  0  0  0  0  0  0  0  0  0  0
   -5.1923   -3.4516   -1.3372 H   0  0  0  0  0  0  0  0  0  0  0  0
   -5.0821   -0.9951   -2.3996 H   0  0  0  0  0  0  0  0  0  0  0  0
   -4.2939    0.1677   -1.2969 H   0  0  0  0  0  0  0  0  0  0  0  0
   -2.9802   -1.9020   -3.1158 H   0  0  0  0  0  0  0  0  0  0  0  0
   -2.9298   -0.1392   -3.1729 H   0  0  0  0  0  0  0  0  0  0  0  0
  1  2  1  0
  2  3  1  0
  3  4  1  0
  4  5  1  0
  5  6  1  0
  6  7  2  0
  7  8  1  0
  8  9  2  0
  9 10  1  0
 10 11  2  0
 11 12  1  0
 12 13  1  0
 13 14  1  0
 12 15  2  0
 15 16  1  0
  9 17  1  0
 17 18  1  0
 18 19  1  0
 19 20  1  0
 20 21  1  0
 21 22  1  0
 22 23  1  0
 22 24  1  0
 24 25  1  0
 17 26  2  0
 26  6  1  0
 16 10  1  0
 25 19  1  0
  1 27  1  0
  1 28  1  0
  1 29  1  0
  2 30  1  0
  2 31  1  0
  3 32  1  0
  3 33  1  0
  4 34  1  0
  4 35  1  0
  5 36  1  0
  8 37  1  0
 13 38  1  0
 13 39  1  0
 14 40  1  0
 15 41  1  0
 18 42  1  0
 19 43  1  6
 20 44  1  0
 20 45  1  0
 21 46  1  0
 21 47  1  0
 22 48  1  1
 23 49  1  0
 24 50  1  0
 24 51  1  0
 25 52  1  0
 25 53  1  0
M  END
$$$$
