[H]c1c(C(=O)N([H])C2([H])C([H])([H])C([H])([H])C([H])([H])C([H])([H])C2([H])[H])c2c([H])c(F)c(F)c([H])c2oc1=O
     RDKit          3D

 37 39  0  0  0  0  0  0  0  0999 V2000
    5.5208    2.8421    0.7867 F   0  0  0  0  0  0  0  0  0  0  0  0
    4.5819    1.9155    0.4032 C   0  0  0  0  0  0  0  0  0  0  0  0
    4.9702    0.6132    0.3231 C   0  0  0  0  0  0  0  0  0  0  0  0
    4.0365   -0.3468   -0.0572 C   0  0  0  0  0  0  0  0  0  0  0  0
    4.4011   -1.6030   -0.1392 O   0  0  0  0  0  0  0  0  0  0  0  0
    3.5690   -2.5568   -0.4959 C   0  0  0  0  0  0  0  0  0  0  0  0
    3.9700   -3.7470   -0.5596 O   0  0  0  0  0  0  0  0  0  0  0  0
    2.2748   -2.2542   -0.7944 C   0  0  0  0  0  0  0  0  0  0  0  0
    1.8502   -0.9467   -0.7191 C   0  0  0  0  0  0  0  0  0  0  0  0
    0.4182   -0.6571   -0.9450 C   0  0  0  0  0  0  0  0  0  0  0  0
    0.0065   -0.7972   -2.1297 O   0  0  0  0  0  0  0  0  0  0  0  0
   -0.3584   -0.2629    0.1600 N   0  0  0  0  0  0  0  0  0  0  0  0
   -1.7518    0.0378    0.0514 C   0  0  0  0  0  0  0  0  0  0  0  0
   -2.5838   -1.2619    0.0885 C   0  0  0  0  0  0  0  0  0  0  0  0
   -4.0189   -0.9577   -0.1586 C   0  0  0  0  0  0  0  0  0  0  0  0
   -4.3130    0.5251   -0.2459 C   0  0  0  0  0  0  0  0  0  0  0  0
   -3.6654    1.3398    0.8357 C   0  0  0  0  0  0  0  0  0  0  0  0
   -2.2740    0.8564    1.2014 C   0  0  0  0  0  0  0  0  0  0  0  0
    2.7218    0.0405   -0.3494 C   0  0  0  0  0  0  0  0  0  0  0  0
    2.3409    1.3552   -0.2656 C   0  0  0  0  0  0  0  0  0  0  0  0
    3.2888    2.2910    0.1151 C   0  0  0  0  0  0  0  0  0  0  0  0
    2.9745    3.6190    0.2067 F   0  0  0  0  0  0  0  0  0  0  0  0
    5.9927    0.2525    0.5358 H   0  0  0  0  0  0  0  0  0  0  0  0
    1.5490   -3.0231   -1.0839 H   0  0  0  0  0  0  0  0  0  0  0  0
    0.1004   -0.1870    1.0934 H   0  0  0  0  0  0  0  0  0  0  0  0
   -1.9789    0.5035   -0.9354 H   0  0  0  0  0  0  0  0  0  0  0  0
   -2.4679   -1.6631    1.1150 H   0  0  0  0  0  0  0  0  0  0  0  0
   -2.1943   -1.9899   -0.6403 H   0  0  0  0  0  0  0  0  0  0  0  0
   -4.6866   -1.3946    0.6199 H   0  0  0  0  0  0  0  0  0  0  0  0
   -4.3381   -1.4119   -1.1177 H   0  0  0  0  0  0  0  0  0  0  0  0
   -5.4125    0.6507   -0.1652 H   0  0  0  0  0  0  0  0  0  0  0  0
   -4.0274    0.8813   -1.2637 H   0  0  0  0  0  0  0  0  0  0  0  0
   -3.5511    2.3879    0.4488 H   0  0  0  0  0  0  0  0  0  0  0  0
   -4.2923    1.3915    1.7564 H   0  0  0  0  0  0  0  0  0  0  0  0
   -2.3159    0.1817    2.0962 H   0  0  0  0  0  0  0  0  0  0  0  0
   -1.6394    1.7267    1.4653 H   0  0  0  0  0  0  0  0  0  0  0  0
    1.3025    1.6495   -0.5074 H   0  0  0  0  0  0  0  0  0  0  0  0
  1  2  1  0
  2  3  2  0
  3  4  1  0
  4  5  1  0
  5  6  1  0
  6  7  2  0
  6  8  1  0
  8  9  2  0
  9 10  1  0
 10 11  2  0
 10 12  1  0
 12 13  1  0
 13 14  1  0
 14 15  1  0
 15 16  1  0
 16 17  1  0
 17 18  1  0
  9 19  1  0
 19 20  1  0
 20 21  2  0
 21 22  1  0
 21  2  1  0
 19  4  2  0
 18 13  1  0
  3 23  1  0
  8 24  1  0
 12 25  1  0
 13 26  1  0
 14 27  1  0
 14 28  1  0
 15 29  1  0
 15 30  1  0
 16 31  1  0
 16 32  1  0
 17 33  1  0
 17 34  1  0
 18 35  1  0
 18 36  1  0
 20 37  1  0
M  END
$$$$
[H]OC([H])([H])[C@@]1(O[H])C([H])([H])[C@@]2([H])O[C@]1(C([H])([H])[H])n1c3c([H])c([H])c([H])c([H])c3c3c4c(c5c6c([H])c([H])c([H])c([H])c6n2c5c31)C(=O)N([H])C4([H])[H]
     RDKit          3D

 54 61  0  0  0  0  0  0  0  0999 V2000
    3.1800    0.8838    1.3878 C   0  0  0  0  0  0  0  0  0  0  0  0
    2.1176    0.2237    0.5774 C   0  0  2  0  0  0  0  0  0  0  0  0
    1.6968   -0.7870    1.4854 O   0  0  0  0  0  0  0  0  0  0  0  0
    1.2511   -1.8639    0.7986 C   0  0  2  0  0  0  0  0  0  0  0  0
    2.0328   -1.9517   -0.4419 C   0  0  0  0  0  0  0  0  0  0  0  0
    2.6347   -0.5714   -0.5849 C   0  0  1  0  0  0  0  0  0  0  0  0
    2.2138   -0.0799   -1.8115 O   0  0  0  0  0  0  0  0  0  0  0  0
    4.1191   -0.7109   -0.6110 C   0  0  0  0  0  0  0  0  0  0  0  0
    4.4589   -1.5975   -1.6334 O   0  0  0  0  0  0  0  0  0  0  0  0
   -0.2014   -1.7853    0.5955 N   0  0  0  0  0  0  0  0  0  0  0  0
   -1.1044   -2.7499    0.6347 C   0  0  0  0  0  0  0  0  0  0  0  0
   -0.9179   -4.0868    0.8734 C   0  0  0  0  0  0  0  0  0  0  0  0
   -2.0299   -4.9199    0.8648 C   0  0  0  0  0  0  0  0  0  0  0  0
   -3.2823   -4.4161    0.6235 C   0  0  0  0  0  0  0  0  0  0  0  0
   -3.4758   -3.0511    0.3794 C   0  0  0  0  0  0  0  0  0  0  0  0
   -2.3768   -2.2421    0.3902 C   0  0  0  0  0  0  0  0  0  0  0  0
   -2.2053   -0.8905    0.1945 C   0  0  0  0  0  0  0  0  0  0  0  0
   -3.0670    0.1511   -0.0975 C   0  0  0  0  0  0  0  0  0  0  0  0
   -4.5001    0.2660   -0.2996 C   0  0  0  0  0  0  0  0  0  0  0  0
   -5.3884   -0.5871   -0.2658 O   0  0  0  0  0  0  0  0  0  0  0  0
   -4.7851    1.6416   -0.5724 N   0  0  0  0  0  0  0  0  0  0  0  0
   -3.5735    2.4248   -0.5610 C   0  0  0  0  0  0  0  0  0  0  0  0
   -2.5314    1.4168   -0.2472 C   0  0  0  0  0  0  0  0  0  0  0  0
   -1.1701    1.6669   -0.1133 C   0  0  0  0  0  0  0  0  0  0  0  0
   -0.3770    2.7657   -0.2198 C   0  0  0  0  0  0  0  0  0  0  0  0
   -0.7006    4.0705   -0.5126 C   0  0  0  0  0  0  0  0  0  0  0  0
    0.3203    5.0230   -0.5829 C   0  0  0  0  0  0  0  0  0  0  0  0
    1.6233    4.6180   -0.3553 C   0  0  0  0  0  0  0  0  0  0  0  0
    1.9232    3.2989   -0.0625 C   0  0  0  0  0  0  0  0  0  0  0  0
    0.9354    2.3466    0.0129 C   0  0  0  0  0  0  0  0  0  0  0  0
    0.9590    1.0103    0.2643 N   0  0  0  0  0  0  0  0  0  0  0  0
   -0.3578    0.6223    0.1746 C   0  0  0  0  0  0  0  0  0  0  0  0
   -0.8544   -0.6533    0.3299 C   0  0  0  0  0  0  0  0  0  0  0  0
    4.0624    1.2462    0.8471 H   0  0  0  0  0  0  0  0  0  0  0  0
    3.5596    0.1949    2.1815 H   0  0  0  0  0  0  0  0  0  0  0  0
    2.7312    1.7230    1.9466 H   0  0  0  0  0  0  0  0  0  0  0  0
    1.4219   -2.7643    1.4120 H   0  0  0  0  0  0  0  0  0  0  0  0
    1.4720   -2.2700   -1.3403 H   0  0  0  0  0  0  0  0  0  0  0  0
    2.8377   -2.7359   -0.3258 H   0  0  0  0  0  0  0  0  0  0  0  0
    2.8799   -0.3390   -2.4928 H   0  0  0  0  0  0  0  0  0  0  0  0
    4.5238   -1.1579    0.3296 H   0  0  0  0  0  0  0  0  0  0  0  0
    4.6358    0.2581   -0.8438 H   0  0  0  0  0  0  0  0  0  0  0  0
    4.7979   -2.4633   -1.2908 H   0  0  0  0  0  0  0  0  0  0  0  0
    0.0592   -4.4684    1.0598 H   0  0  0  0  0  0  0  0  0  0  0  0
   -1.8569   -5.9719    1.0560 H   0  0  0  0  0  0  0  0  0  0  0  0
   -4.1224   -5.0759    0.6219 H   0  0  0  0  0  0  0  0  0  0  0  0
   -4.4721   -2.7398    0.2018 H   0  0  0  0  0  0  0  0  0  0  0  0
   -5.7336    2.0654   -0.7610 H   0  0  0  0  0  0  0  0  0  0  0  0
   -3.6366    3.2333    0.1993 H   0  0  0  0  0  0  0  0  0  0  0  0
   -3.3846    2.8954   -1.5673 H   0  0  0  0  0  0  0  0  0  0  0  0
   -1.7294    4.3700   -0.6881 H   0  0  0  0  0  0  0  0  0  0  0  0
    0.0587    6.0490   -0.8135 H   0  0  0  0  0  0  0  0  0  0  0  0
    2.3774    5.3965   -0.4223 H   0  0  0  0  0  0  0  0  0  0  0  0
    2.9510    3.0689    0.0761 H   0  0  0  0  0  0  0  0  0  0  0  0
  2  1  1  1
  2  3  1  0
  3  4  1  0
  4  5  1  0
  5  6  1  0
  6  7  1  6
  6  8  1  0
  8  9  1  0
  4 10  1  0
 10 11  1  0
 11 12  2  0
 12 13  1  0
 13 14  2  0
 14 15  1  0
 15 16  2  0
 16 17  1  0
 17 18  2  0
 18 19  1  0
 19 20  2  0
 19 21  1  0
 21 22  1  0
 22 23  1  0
 23 24  2  0
 24 25  1  0
 25 26  2  0
 26 27  1  0
 27 28  2  0
 28 29  1  0
 29 30  2  0
 30 31  1  0
 31 32  1  0
 32 33  2  0
  6  2  1  0
 33 10  1  0
 31  2  1  0
 16 11  1  0
 33 17  1  0
 23 18  1  0
 32 24  1  0
 30 25  1  0
  1 34  1  0
  1 35  1  0
  1 36  1  0
  4 37  1  1
  5 38  1  0
  5 39  1  0
  7 40  1  0
  8 41  1  0
  8 42  1  0
  9 43  1  0
 12 44  1  0
 13 45  1  0
 14 46  1  0
 15 47  1  0
 21 48  1  0
 22 49  1  0
 22 50  1  0
 26 51  1  0
 27 52  1  0
 28 53  1  0
 29 54  1  0
M  END
$$$$
[H]c1c([H])c([H])c2c(c1[H])c1c3c(c4c5c([H])c([H])c([H])c([H])c5n5c4c1n2[C@]1([H])O[C@]5(C([H])([H])[H])[C@]([H])(OC([H])([H])[H])[C@@]([H])(N([H])C([H])([H])[H])C1([H])[H])C([H])([H])N([H])C3=O
     RDKit          3D

 61 68  0  0  0  0  0  0  0  0999 V2000
   -4.6729    2.4704    0.6701 C   0  0  0  0  0  0  0  0  0  0  0  0
   -3.9561    1.2431    0.7989 N   0  0  0  0  0  0  0  0  0  0  0  0
   -3.1827    0.9142   -0.3838 C   0  0  1  0  0  0  0  0  0  0  0  0
   -2.1402    2.0723   -0.5185 C   0  0  0  0  0  0  0  0  0  0  0  0
   -0.9578    1.3809   -0.4239 C   0  0  1  0  0  0  0  0  0  0  0  0
   -1.0012    0.5004   -1.5008 O   0  0  0  0  0  0  0  0  0  0  0  0
   -1.3700   -0.7676   -0.9505 C   0  0  2  0  0  0  0  0  0  0  0  0
   -1.7787   -1.5242   -2.2382 C   0  0  0  0  0  0  0  0  0  0  0  0
   -2.4988   -0.4528   -0.0976 C   0  0  2  0  0  0  0  0  0  0  0  0
   -3.5516   -1.3395   -0.4711 O   0  0  0  0  0  0  0  0  0  0  0  0
   -4.0462   -2.0650    0.5660 C   0  0  0  0  0  0  0  0  0  0  0  0
   -0.1182   -1.2988   -0.4529 N   0  0  0  0  0  0  0  0  0  0  0  0
    0.2026   -2.6147   -0.3684 C   0  0  0  0  0  0  0  0  0  0  0  0
   -0.5266   -3.7517   -0.5683 C   0  0  0  0  0  0  0  0  0  0  0  0
    0.0524   -5.0036   -0.4051 C   0  0  0  0  0  0  0  0  0  0  0  0
    1.3926   -5.1477   -0.0325 C   0  0  0  0  0  0  0  0  0  0  0  0
    2.1371   -4.0052    0.1725 C   0  0  0  0  0  0  0  0  0  0  0  0
    1.5289   -2.7803    0.0012 C   0  0  0  0  0  0  0  0  0  0  0  0
    2.0485   -1.5465    0.1558 C   0  0  0  0  0  0  0  0  0  0  0  0
    3.3025   -1.0014    0.4712 C   0  0  0  0  0  0  0  0  0  0  0  0
    4.5400   -1.7303    0.7940 C   0  0  0  0  0  0  0  0  0  0  0  0
    5.5206   -0.7063    1.0489 N   0  0  0  0  0  0  0  0  0  0  0  0
    4.9204    0.5944    0.8755 C   0  0  0  0  0  0  0  0  0  0  0  0
    5.6103    1.6121    1.0433 O   0  0  0  0  0  0  0  0  0  0  0  0
    3.5413    0.3604    0.5176 C   0  0  0  0  0  0  0  0  0  0  0  0
    2.5227    1.2647    0.2507 C   0  0  0  0  0  0  0  0  0  0  0  0
    2.3682    2.6229    0.2472 C   0  0  0  0  0  0  0  0  0  0  0  0
    3.2205    3.6549    0.4650 C   0  0  0  0  0  0  0  0  0  0  0  0
    2.7083    4.9621    0.3758 C   0  0  0  0  0  0  0  0  0  0  0  0
    1.3816    5.1770    0.0757 C   0  0  0  0  0  0  0  0  0  0  0  0
    0.5187    4.1120   -0.1455 C   0  0  0  0  0  0  0  0  0  0  0  0
    1.0401    2.8494   -0.0530 C   0  0  0  0  0  0  0  0  0  0  0  0
    0.3949    1.7020   -0.2301 N   0  0  0  0  0  0  0  0  0  0  0  0
    1.3072    0.7097   -0.0536 C   0  0  0  0  0  0  0  0  0  0  0  0
    1.0653   -0.6739   -0.1093 C   0  0  0  0  0  0  0  0  0  0  0  0
   -4.1378    3.2896    1.1811 H   0  0  0  0  0  0  0  0  0  0  0  0
   -4.9117    2.6802   -0.3866 H   0  0  0  0  0  0  0  0  0  0  0  0
   -5.6527    2.3385    1.2050 H   0  0  0  0  0  0  0  0  0  0  0  0
   -3.2976    1.2798    1.6344 H   0  0  0  0  0  0  0  0  0  0  0  0
   -3.8488    0.8666   -1.2338 H   0  0  0  0  0  0  0  0  0  0  0  0
   -2.3900    2.5503   -1.5008 H   0  0  0  0  0  0  0  0  0  0  0  0
   -2.3278    2.8494    0.2401 H   0  0  0  0  0  0  0  0  0  0  0  0
   -1.1232    0.8155    0.6063 H   0  0  0  0  0  0  0  0  0  0  0  0
   -2.0290   -0.8100   -3.0632 H   0  0  0  0  0  0  0  0  0  0  0  0
   -0.9380   -2.1222   -2.6367 H   0  0  0  0  0  0  0  0  0  0  0  0
   -2.6973   -2.1123   -2.1005 H   0  0  0  0  0  0  0  0  0  0  0  0
   -2.3910   -0.6283    0.9834 H   0  0  0  0  0  0  0  0  0  0  0  0
   -3.2245   -2.6856    1.0089 H   0  0  0  0  0  0  0  0  0  0  0  0
   -4.7508   -2.8108    0.1278 H   0  0  0  0  0  0  0  0  0  0  0  0
   -4.5876   -1.5274    1.3339 H   0  0  0  0  0  0  0  0  0  0  0  0
   -1.5381   -3.7221   -0.8394 H   0  0  0  0  0  0  0  0  0  0  0  0
   -0.5262   -5.8823   -0.5635 H   0  0  0  0  0  0  0  0  0  0  0  0
    1.8193   -6.1363    0.0880 H   0  0  0  0  0  0  0  0  0  0  0  0
    3.1750   -4.0914    0.4618 H   0  0  0  0  0  0  0  0  0  0  0  0
    4.3470   -2.2880    1.7377 H   0  0  0  0  0  0  0  0  0  0  0  0
    4.8560   -2.4302   -0.0043 H   0  0  0  0  0  0  0  0  0  0  0  0
    6.5043   -0.9356    1.3160 H   0  0  0  0  0  0  0  0  0  0  0  0
    4.2542    3.5201    0.6968 H   0  0  0  0  0  0  0  0  0  0  0  0
    3.4136    5.7638    0.5555 H   0  0  0  0  0  0  0  0  0  0  0  0
    0.9998    6.1818    0.0099 H   0  0  0  0  0  0  0  0  0  0  0  0
   -0.5210    4.2535   -0.3844 H   0  0  0  0  0  0  0  0  0  0  0  0
  1  2  1  0
  2  3  1  0
  3  4  1  0
  4  5  1  0
  5  6  1  0
  6  7  1  0
  7  8  1  6
  7  9  1  0
  9 10  1  0
 10 11  1  0
  7 12  1  0
 12 13  1  0
 13 14  2  0
 14 15  1  0
 15 16  2  0
 16 17  1  0
 17 18  2  0
 18 19  1  0
 19 20  2  0
 20 21  1  0
 21 22  1  0
 22 23  1  0
 23 24  2  0
 23 25  1  0
 25 26  2  0
 26 27  1  0
 27 28  2  0
 28 29  1  0
 29 30  2  0
 30 31  1  0
 31 32  2  0
 32 33  1  0
 33 34  1  0
 34 35  2  0
  9  3  1  0
 35 12  1  0
 33  5  1  0
 18 13  1  0
 35 19  1  0
 25 20  1  0
 34 26  1  0
 32 27  1  0
  1 36  1  0
  1 37  1  0
  1 38  1  0
  2 39  1  0
  3 40  1  6
  4 41  1  0
  4 42  1  0
  5 43  1  1
  8 44  1  0
  8 45  1  0
  8 46  1  0
  9 47  1  1
 11 48  1  0
 11 49  1  0
 11 50  1  0
 14 51  1  0
 15 52  1  0
 16 53  1  0
 17 54  1  0
 21 55  1  0
 21 56  1  0
 22 57  1  0
 28 58  1  0
 29 59  1  0
 30 60  1  0
 31 61  1  0
M  END
$$$$
[H]OC(=O)c1oc(-c2c([H])c([H])c(C([H])([H])c3oc4c([H])c(O[H])c(O[H])c([H])c4c3[H])c([H])c2[H])c([H])c1[H]
     RDKit          3D

 40 43  0  0  0  0  0  0  0  0999 V2000
    6.5858    0.8171   -2.7977 O   0  0  0  0  0  0  0  0  0  0  0  0
    6.7065   -0.3218   -2.0245 C   0  0  0  0  0  0  0  0  0  0  0  0
    7.6973   -1.0729   -2.1749 O   0  0  0  0  0  0  0  0  0  0  0  0
    5.7039   -0.6447   -1.0537 C   0  0  0  0  0  0  0  0  0  0  0  0
    5.6809   -1.7413   -0.2083 C   0  0  0  0  0  0  0  0  0  0  0  0
    4.5491   -1.6382    0.5341 C   0  0  0  0  0  0  0  0  0  0  0  0
    3.9012   -0.4925    0.1379 C   0  0  0  0  0  0  0  0  0  0  0  0
    4.6173    0.0588   -0.7978 O   0  0  0  0  0  0  0  0  0  0  0  0
    2.6438    0.0341    0.6513 C   0  0  0  0  0  0  0  0  0  0  0  0
    1.9518   -0.6290    1.6539 C   0  0  0  0  0  0  0  0  0  0  0  0
    0.7600   -0.1338    2.1435 C   0  0  0  0  0  0  0  0  0  0  0  0
    0.2092    1.0335    1.6606 C   0  0  0  0  0  0  0  0  0  0  0  0
   -1.0831    1.5593    2.1999 C   0  0  0  0  0  0  0  0  0  0  0  0
   -2.2123    1.0146    1.4262 C   0  0  0  0  0  0  0  0  0  0  0  0
   -2.8867   -0.1607    1.7162 C   0  0  0  0  0  0  0  0  0  0  0  0
   -3.8527   -0.2552    0.7258 C   0  0  0  0  0  0  0  0  0  0  0  0
   -4.8322   -1.1752    0.4506 C   0  0  0  0  0  0  0  0  0  0  0  0
   -5.6670   -0.9979   -0.6345 C   0  0  0  0  0  0  0  0  0  0  0  0
   -6.6562   -1.9460   -0.8955 O   0  0  0  0  0  0  0  0  0  0  0  0
   -5.5616    0.0875   -1.4777 C   0  0  0  0  0  0  0  0  0  0  0  0
   -6.4273    0.2420   -2.5770 O   0  0  0  0  0  0  0  0  0  0  0  0
   -4.5782    1.0144   -1.2043 C   0  0  0  0  0  0  0  0  0  0  0  0
   -3.7333    0.8351   -0.1062 C   0  0  0  0  0  0  0  0  0  0  0  0
   -2.7408    1.5509    0.3640 O   0  0  0  0  0  0  0  0  0  0  0  0
    0.8911    1.6984    0.6639 C   0  0  0  0  0  0  0  0  0  0  0  0
    2.0838    1.2006    0.1756 C   0  0  0  0  0  0  0  0  0  0  0  0
    7.3230    1.5209   -2.7991 H   0  0  0  0  0  0  0  0  0  0  0  0
    6.4060   -2.5241   -0.1422 H   0  0  0  0  0  0  0  0  0  0  0  0
    4.2193   -2.3250    1.2923 H   0  0  0  0  0  0  0  0  0  0  0  0
    2.4097   -1.5445    2.0140 H   0  0  0  0  0  0  0  0  0  0  0  0
    0.2372   -0.6672    2.9256 H   0  0  0  0  0  0  0  0  0  0  0  0
   -1.1727    1.3057    3.2710 H   0  0  0  0  0  0  0  0  0  0  0  0
   -1.0614    2.6757    2.0937 H   0  0  0  0  0  0  0  0  0  0  0  0
   -2.7159   -0.8544    2.5200 H   0  0  0  0  0  0  0  0  0  0  0  0
   -4.9065   -2.0298    1.1241 H   0  0  0  0  0  0  0  0  0  0  0  0
   -6.7781   -2.7611   -0.3099 H   0  0  0  0  0  0  0  0  0  0  0  0
   -6.2994    1.0597   -3.1582 H   0  0  0  0  0  0  0  0  0  0  0  0
   -4.4764    1.8672   -1.8457 H   0  0  0  0  0  0  0  0  0  0  0  0
    0.4483    2.6211    0.2875 H   0  0  0  0  0  0  0  0  0  0  0  0
    2.6165    1.7187   -0.6020 H   0  0  0  0  0  0  0  0  0  0  0  0
  1  2  1  0
  2  3  2  0
  2  4  1  0
  4  5  2  0
  5  6  1  0
  6  7  2  0
  7  8  1  0
  7  9  1  0
  9 10  2  0
 10 11  1  0
 11 12  2  0
 12 13  1  0
 13 14  1  0
 14 15  2  0
 15 16  1  0
 16 17  2  0
 17 18  1  0
 18 19  1  0
 18 20  2  0
 20 21  1  0
 20 22  1  0
 22 23  2  0
 23 24  1  0
 12 25  1  0
 25 26  2  0
  8  4  1  0
 26  9  1  0
 24 14  1  0
 23 16  1  0
  1 27  1  0
  5 28  1  0
  6 29  1  0
 10 30  1  0
 11 31  1  0
 13 32  1  0
 13 33  1  0
 15 34  1  0
 17 35  1  0
 19 36  1  0
 21 37  1  0
 22 38  1  0
 25 39  1  0
 26 40  1  0
M  END
$$$$
[H]c1nc([H])n(C([H])([H])c2c([H])c([H])c(-c3c([H])c([H])c(OC([H])([H])C([H])([H])[H])c([H])c3[H])c([H])c2[H])c1[H]
     RDKit          3D

 39 41  0  0  0  0  0  0  0  0999 V2000
    7.3532    0.2892   -1.4137 C   0  0  0  0  0  0  0  0  0  0  0  0
    5.8983    0.6666   -1.1440 C   0  0  0  0  0  0  0  0  0  0  0  0
    5.2018   -0.4788   -0.7014 O   0  0  0  0  0  0  0  0  0  0  0  0
    3.8538   -0.4040   -0.3862 C   0  0  0  0  0  0  0  0  0  0  0  0
    3.2211    0.8207   -0.5192 C   0  0  0  0  0  0  0  0  0  0  0  0
    1.8804    0.9293   -0.2136 C   0  0  0  0  0  0  0  0  0  0  0  0
    1.1356   -0.1419    0.2233 C   0  0  0  0  0  0  0  0  0  0  0  0
    1.7938   -1.3477    0.3455 C   0  0  0  0  0  0  0  0  0  0  0  0
    3.1310   -1.4860    0.0479 C   0  0  0  0  0  0  0  0  0  0  0  0
   -0.2672    0.0279    0.5301 C   0  0  0  0  0  0  0  0  0  0  0  0
   -0.9331   -0.6997    1.4929 C   0  0  0  0  0  0  0  0  0  0  0  0
   -2.2865   -0.4734    1.7251 C   0  0  0  0  0  0  0  0  0  0  0  0
   -3.0001    0.4664    1.0177 C   0  0  0  0  0  0  0  0  0  0  0  0
   -4.4260    0.7014    1.2654 C   0  0  0  0  0  0  0  0  0  0  0  0
   -5.2779   -0.1404    0.4349 N   0  0  0  0  0  0  0  0  0  0  0  0
   -5.7469   -1.3483    0.7106 C   0  0  0  0  0  0  0  0  0  0  0  0
   -6.5046   -1.7778   -0.3421 C   0  0  0  0  0  0  0  0  0  0  0  0
   -6.4750   -0.7895   -1.2572 N   0  0  0  0  0  0  0  0  0  0  0  0
   -5.7213    0.2147   -0.7780 C   0  0  0  0  0  0  0  0  0  0  0  0
   -2.3372    1.1850    0.0649 C   0  0  0  0  0  0  0  0  0  0  0  0
   -0.9995    0.9647   -0.1681 C   0  0  0  0  0  0  0  0  0  0  0  0
    7.3303   -0.4300   -2.2731 H   0  0  0  0  0  0  0  0  0  0  0  0
    7.9580    1.1638   -1.6675 H   0  0  0  0  0  0  0  0  0  0  0  0
    7.7874   -0.1761   -0.5010 H   0  0  0  0  0  0  0  0  0  0  0  0
    5.9104    1.4697   -0.3783 H   0  0  0  0  0  0  0  0  0  0  0  0
    5.5089    1.0834   -2.0847 H   0  0  0  0  0  0  0  0  0  0  0  0
    3.7508    1.6944   -0.8562 H   0  0  0  0  0  0  0  0  0  0  0  0
    1.4186    1.9094   -0.3306 H   0  0  0  0  0  0  0  0  0  0  0  0
    1.1864   -2.1884    0.6940 H   0  0  0  0  0  0  0  0  0  0  0  0
    3.6098   -2.4312    0.1530 H   0  0  0  0  0  0  0  0  0  0  0  0
   -0.3671   -1.4401    2.0489 H   0  0  0  0  0  0  0  0  0  0  0  0
   -2.7631   -1.0714    2.4923 H   0  0  0  0  0  0  0  0  0  0  0  0
   -4.6380    1.7838    1.0207 H   0  0  0  0  0  0  0  0  0  0  0  0
   -4.7154    0.5890    2.3375 H   0  0  0  0  0  0  0  0  0  0  0  0
   -5.5682   -1.9068    1.6085 H   0  0  0  0  0  0  0  0  0  0  0  0
   -7.0427   -2.7363   -0.4467 H   0  0  0  0  0  0  0  0  0  0  0  0
   -5.5210    1.1581   -1.3164 H   0  0  0  0  0  0  0  0  0  0  0  0
   -2.8438    1.9237   -0.5095 H   0  0  0  0  0  0  0  0  0  0  0  0
   -0.4948    1.5432   -0.9257 H   0  0  0  0  0  0  0  0  0  0  0  0
  1  2  1  0
  2  3  1  0
  3  4  1  0
  4  5  2  0
  5  6  1  0
  6  7  2  0
  7  8  1  0
  8  9  2  0
  7 10  1  0
 10 11  2  0
 11 12  1  0
 12 13  2  0
 13 14  1  0
 14 15  1  0
 15 16  1  0
 16 17  2  0
 17 18  1  0
 18 19  2  0
 13 20  1  0
 20 21  2  0
  9  4  1  0
 21 10  1  0
 19 15  1  0
  1 22  1  0
  1 23  1  0
  1 24  1  0
  2 25  1  0
  2 26  1  0
  5 27  1  0
  6 28  1  0
  8 29  1  0
  9 30  1  0
 11 31  1  0
 12 32  1  0
 14 33  1  0
 14 34  1  0
 16 35  1  0
 17 36  1  0
 19 37  1  0
 20 38  1  0
 21 39  1  0
M  END
$$$$
[H]ON([H])C(=O)[C@@]([H])(O[H])[C@]([H])(C(=O)N([H])[C@]([H])(C(=O)N([H])[C@]([H])(C(=O)c1nc([H])sc1[H])C([H])([H])c1c([H])n([H])c2c([H])c([H])c([H])c([H])c12)C([H])([H])C([H])(C([H])([H])[H])C([H])([H])[H])C([H])([H])C([H])([H])C([H])(C([H])([H])[H])C([H])([H])[H]
     RDKit          3D

 80 82  0  0  0  0  0  0  0  0999 V2000
    2.9483   -3.9101   -0.9802 C   0  0  0  0  0  0  0  0  0  0  0  0
    1.4920   -4.0838   -1.2156 C   0  0  0  0  0  0  0  0  0  0  0  0
    1.0248   -5.5170   -1.0125 C   0  0  0  0  0  0  0  0  0  0  0  0
    0.5798   -3.1761   -0.4775 C   0  0  0  0  0  0  0  0  0  0  0  0
    0.7153   -1.7241   -0.7279 C   0  0  2  0  0  0  0  0  0  0  0  0
    1.9383   -1.1216   -0.4203 N   0  0  0  0  0  0  0  0  0  0  0  0
    2.5620   -0.7803    0.7861 C   0  0  0  0  0  0  0  0  0  0  0  0
    2.0228   -1.0447    1.8772 O   0  0  0  0  0  0  0  0  0  0  0  0
    3.8903   -0.0805    0.8200 C   0  0  2  0  0  0  0  0  0  0  0  0
    3.8845    1.1605    0.0100 C   0  0  0  0  0  0  0  0  0  0  0  0
    2.8127    2.1378    0.4863 C   0  0  0  0  0  0  0  0  0  0  0  0
    2.8137    3.4122   -0.3167 C   0  0  0  0  0  0  0  0  0  0  0  0
    4.1115    4.1693   -0.2335 C   0  0  0  0  0  0  0  0  0  0  0  0
    1.7181    4.3014    0.1891 C   0  0  0  0  0  0  0  0  0  0  0  0
    5.0388   -0.9746    0.4529 C   0  0  2  0  0  0  0  0  0  0  0  0
    5.1398   -2.0239    1.3945 O   0  0  0  0  0  0  0  0  0  0  0  0
    6.2919   -0.2523    0.4208 C   0  0  0  0  0  0  0  0  0  0  0  0
    6.7056    0.4693   -0.5465 O   0  0  0  0  0  0  0  0  0  0  0  0
    7.1963   -0.3131    1.5526 N   0  0  0  0  0  0  0  0  0  0  0  0
    8.3698    0.3302    1.5463 O   0  0  0  0  0  0  0  0  0  0  0  0
   -0.5063   -1.0596   -0.1405 C   0  0  0  0  0  0  0  0  0  0  0  0
   -0.3929   -0.2750    0.8018 O   0  0  0  0  0  0  0  0  0  0  0  0
   -1.7656   -1.3455   -0.6927 N   0  0  0  0  0  0  0  0  0  0  0  0
   -3.0384   -0.7541   -0.2031 C   0  0  1  0  0  0  0  0  0  0  0  0
   -3.2316    0.5294   -1.0538 C   0  0  0  0  0  0  0  0  0  0  0  0
   -4.4235    1.2947   -0.7353 C   0  0  0  0  0  0  0  0  0  0  0  0
   -5.6267    1.3777   -1.4616 C   0  0  0  0  0  0  0  0  0  0  0  0
   -6.4743    2.2119   -0.8384 N   0  0  0  0  0  0  0  0  0  0  0  0
   -5.8987    2.6950    0.2746 C   0  0  0  0  0  0  0  0  0  0  0  0
   -6.3387    3.5716    1.2585 C   0  0  0  0  0  0  0  0  0  0  0  0
   -5.4839    3.8558    2.2900 C   0  0  0  0  0  0  0  0  0  0  0  0
   -4.2208    3.3117    2.3847 C   0  0  0  0  0  0  0  0  0  0  0  0
   -3.7851    2.4385    1.4015 C   0  0  0  0  0  0  0  0  0  0  0  0
   -4.6458    2.1390    0.3441 C   0  0  0  0  0  0  0  0  0  0  0  0
   -4.1236   -1.6757   -0.5771 C   0  0  0  0  0  0  0  0  0  0  0  0
   -3.9696   -2.3204   -1.6740 O   0  0  0  0  0  0  0  0  0  0  0  0
   -5.3473   -1.8887    0.2357 C   0  0  0  0  0  0  0  0  0  0  0  0
   -6.3121   -2.7793   -0.1922 C   0  0  0  0  0  0  0  0  0  0  0  0
   -7.4667   -2.6624    1.0585 S   0  0  0  0  0  0  0  0  0  0  0  0
   -6.6742   -1.5119    2.0353 C   0  0  0  0  0  0  0  0  0  0  0  0
   -5.5642   -1.2780    1.3478 N   0  0  0  0  0  0  0  0  0  0  0  0
    3.2226   -3.7246    0.0650 H   0  0  0  0  0  0  0  0  0  0  0  0
    3.3787   -3.0772   -1.5949 H   0  0  0  0  0  0  0  0  0  0  0  0
    3.4577   -4.8409   -1.3680 H   0  0  0  0  0  0  0  0  0  0  0  0
    1.3140   -3.8862   -2.3175 H   0  0  0  0  0  0  0  0  0  0  0  0
    1.3329   -6.0935   -1.9125 H   0  0  0  0  0  0  0  0  0  0  0  0
    1.3676   -5.9678   -0.0826 H   0  0  0  0  0  0  0  0  0  0  0  0
   -0.0938   -5.5035   -1.0176 H   0  0  0  0  0  0  0  0  0  0  0  0
   -0.4624   -3.5390   -0.6241 H   0  0  0  0  0  0  0  0  0  0  0  0
    0.7923   -3.3592    0.6255 H   0  0  0  0  0  0  0  0  0  0  0  0
    0.5329   -1.5730   -1.8670 H   0  0  0  0  0  0  0  0  0  0  0  0
    2.5506   -0.8602   -1.2932 H   0  0  0  0  0  0  0  0  0  0  0  0
    4.1005    0.2286    1.8922 H   0  0  0  0  0  0  0  0  0  0  0  0
    4.8735    1.6753    0.1555 H   0  0  0  0  0  0  0  0  0  0  0  0
    3.7276    0.9368   -1.0412 H   0  0  0  0  0  0  0  0  0  0  0  0
    1.8086    1.6974    0.4478 H   0  0  0  0  0  0  0  0  0  0  0  0
    3.0869    2.4068    1.5267 H   0  0  0  0  0  0  0  0  0  0  0  0
    2.6368    3.1521   -1.3931 H   0  0  0  0  0  0  0  0  0  0  0  0
    3.9162    5.2413   -0.4209 H   0  0  0  0  0  0  0  0  0  0  0  0
    4.8649    3.8199   -0.9373 H   0  0  0  0  0  0  0  0  0  0  0  0
    4.5253    4.0801    0.8110 H   0  0  0  0  0  0  0  0  0  0  0  0
    1.3208    3.9914    1.1669 H   0  0  0  0  0  0  0  0  0  0  0  0
    2.0024    5.3636    0.2633 H   0  0  0  0  0  0  0  0  0  0  0  0
    0.8516    4.2205   -0.5338 H   0  0  0  0  0  0  0  0  0  0  0  0
    4.8174   -1.4308   -0.5646 H   0  0  0  0  0  0  0  0  0  0  0  0
    4.9193   -1.6434    2.2597 H   0  0  0  0  0  0  0  0  0  0  0  0
    6.9527   -0.8618    2.4147 H   0  0  0  0  0  0  0  0  0  0  0  0
    8.4963    0.8139    0.6698 H   0  0  0  0  0  0  0  0  0  0  0  0
   -1.8340   -2.0016   -1.4960 H   0  0  0  0  0  0  0  0  0  0  0  0
   -2.9910   -0.4699    0.8252 H   0  0  0  0  0  0  0  0  0  0  0  0
   -2.2945    1.1285   -0.8289 H   0  0  0  0  0  0  0  0  0  0  0  0
   -3.1723    0.2966   -2.1181 H   0  0  0  0  0  0  0  0  0  0  0  0
   -5.8074    0.8407   -2.3699 H   0  0  0  0  0  0  0  0  0  0  0  0
   -7.4389    2.4748   -1.1390 H   0  0  0  0  0  0  0  0  0  0  0  0
   -7.3187    4.0126    1.2086 H   0  0  0  0  0  0  0  0  0  0  0  0
   -5.7795    4.5250    3.0742 H   0  0  0  0  0  0  0  0  0  0  0  0
   -3.5293    3.5245    3.1835 H   0  0  0  0  0  0  0  0  0  0  0  0
   -2.7966    2.0066    1.4660 H   0  0  0  0  0  0  0  0  0  0  0  0
   -6.3166   -3.4007   -1.1106 H   0  0  0  0  0  0  0  0  0  0  0  0
   -6.9810   -1.0567    2.9955 H   0  0  0  0  0  0  0  0  0  0  0  0
  1  2  1  0
  2  3  1  0
  2  4  1  0
  4  5  1  0
  5  6  1  0
  6  7  1  0
  7  8  2  0
  7  9  1  0
  9 10  1  0
 10 11  1  0
 11 12  1  0
 12 13  1  0
 12 14  1  0
  9 15  1  0
 15 16  1  0
 15 17  1  0
 17 18  2  0
 17 19  1  0
 19 20  1  0
  5 21  1  0
 21 22  2  0
 21 23  1  0
 23 24  1  0
 24 25  1  0
 25 26  1  0
 26 27  2  0
 27 28  1  0
 28 29  1  0
 29 30  2  0
 30 31  1  0
 31 32  2  0
 32 33  1  0
 33 34  2  0
 24 35  1  0
 35 36  2  0
 35 37  1  0
 37 38  2  0
 38 39  1  0
 39 40  1  0
 40 41  2  0
 34 26  1  0
 41 37  1  0
 34 29  1  0
  1 42  1  0
  1 43  1  0
  1 44  1  0
  2 45  1  0
  3 46  1  0
  3 47  1  0
  3 48  1  0
  4 49  1  0
  4 50  1  0
  5 51  1  6
  6 52  1  0
  9 53  1  1
 10 54  1  0
 10 55  1  0
 11 56  1  0
 11 57  1  0
 12 58  1  0
 13 59  1  0
 13 60  1  0
 13 61  1  0
 14 62  1  0
 14 63  1  0
 14 64  1  0
 15 65  1  6
 16 66  1  0
 19 67  1  0
 20 68  1  0
 23 69  1  0
 24 70  1  1
 25 71  1  0
 25 72  1  0
 27 73  1  0
 28 74  1  0
 30 75  1  0
 31 76  1  0
 32 77  1  0
 33 78  1  0
 38 79  1  0
 40 80  1  0
M  END
$$$$
[H]SC(C(=O)N([H])c1c([H])c([H])nn1-c1c([H])c([H])c(C(=O)OC([H])(C([H])([H])C([H])([H])[H])C([H])([H])C([H])([H])C([H])([H])C([H])([H])[H])c([H])c1[H])(C([H])([H])[H])C([H])([H])[H]
     RDKit          3D

 57 58  0  0  0  0  0  0  0  0999 V2000
   -7.2259    0.5778   -0.1154 C   0  0  0  0  0  0  0  0  0  0  0  0
   -7.1907   -0.8736    0.1296 C   0  0  0  0  0  0  0  0  0  0  0  0
   -6.3409   -1.4735    1.1698 C   0  0  0  0  0  0  0  0  0  0  0  0
   -4.8782   -1.3429    1.0559 C   0  0  0  0  0  0  0  0  0  0  0  0
   -4.3200   -0.0165    1.1583 C   0  0  0  0  0  0  0  0  0  0  0  0
   -4.6923    0.5409    2.5496 C   0  0  0  0  0  0  0  0  0  0  0  0
   -4.1261    1.9362    2.7131 C   0  0  0  0  0  0  0  0  0  0  0  0
   -2.8953    0.0638    1.1896 O   0  0  0  0  0  0  0  0  0  0  0  0
   -2.1635    0.9200    0.4168 C   0  0  0  0  0  0  0  0  0  0  0  0
   -2.8330    1.6560   -0.3480 O   0  0  0  0  0  0  0  0  0  0  0  0
   -0.7160    1.0402    0.4118 C   0  0  0  0  0  0  0  0  0  0  0  0
    0.1058    0.2838    1.2195 C   0  0  0  0  0  0  0  0  0  0  0  0
    1.4953    0.4497    1.1632 C   0  0  0  0  0  0  0  0  0  0  0  0
    2.0774    1.3532    0.3189 C   0  0  0  0  0  0  0  0  0  0  0  0
    1.2590    2.1167   -0.4955 C   0  0  0  0  0  0  0  0  0  0  0  0
   -0.0959    1.9411   -0.4270 C   0  0  0  0  0  0  0  0  0  0  0  0
    3.4681    1.5756    0.2093 N   0  0  0  0  0  0  0  0  0  0  0  0
    4.0491    2.7054    0.5632 N   0  0  0  0  0  0  0  0  0  0  0  0
    5.3532    2.6583    0.3638 C   0  0  0  0  0  0  0  0  0  0  0  0
    5.5935    1.3752   -0.1635 C   0  0  0  0  0  0  0  0  0  0  0  0
    4.4171    0.6976   -0.2607 C   0  0  0  0  0  0  0  0  0  0  0  0
    4.0664   -0.5846   -0.7025 N   0  0  0  0  0  0  0  0  0  0  0  0
    4.7797   -1.6558   -1.2172 C   0  0  0  0  0  0  0  0  0  0  0  0
    4.0260   -2.7042   -1.4992 O   0  0  0  0  0  0  0  0  0  0  0  0
    6.1862   -1.8947   -1.5237 C   0  0  0  0  0  0  0  0  0  0  0  0
    6.6507   -0.9739   -2.6113 C   0  0  0  0  0  0  0  0  0  0  0  0
    6.3557   -3.3332   -2.1213 C   0  0  0  0  0  0  0  0  0  0  0  0
    7.2692   -1.9216   -0.0674 S   0  0  0  0  0  0  0  0  0  0  0  0
   -6.5538    0.8761   -0.9723 H   0  0  0  0  0  0  0  0  0  0  0  0
   -8.2541    0.8904   -0.5156 H   0  0  0  0  0  0  0  0  0  0  0  0
   -7.0259    1.2327    0.7295 H   0  0  0  0  0  0  0  0  0  0  0  0
   -6.9492   -1.3400   -0.9022 H   0  0  0  0  0  0  0  0  0  0  0  0
   -8.2808   -1.2110    0.2407 H   0  0  0  0  0  0  0  0  0  0  0  0
   -6.5703   -2.5907    1.1491 H   0  0  0  0  0  0  0  0  0  0  0  0
   -6.7317   -1.0770    2.1610 H   0  0  0  0  0  0  0  0  0  0  0  0
   -4.6031   -1.9255    0.1331 H   0  0  0  0  0  0  0  0  0  0  0  0
   -4.4178   -1.9852    1.8948 H   0  0  0  0  0  0  0  0  0  0  0  0
   -4.7368    0.6952    0.4416 H   0  0  0  0  0  0  0  0  0  0  0  0
   -5.7671    0.6080    2.7048 H   0  0  0  0  0  0  0  0  0  0  0  0
   -4.2670   -0.0918    3.3537 H   0  0  0  0  0  0  0  0  0  0  0  0
   -3.0256    1.8394    2.8598 H   0  0  0  0  0  0  0  0  0  0  0  0
   -4.5261    2.3085    3.6921 H   0  0  0  0  0  0  0  0  0  0  0  0
   -4.4167    2.6051    1.9012 H   0  0  0  0  0  0  0  0  0  0  0  0
   -0.3540   -0.4253    1.8818 H   0  0  0  0  0  0  0  0  0  0  0  0
    2.1135   -0.1471    1.7980 H   0  0  0  0  0  0  0  0  0  0  0  0
    1.6959    2.8531   -1.1859 H   0  0  0  0  0  0  0  0  0  0  0  0
   -0.7414    2.5468   -1.0726 H   0  0  0  0  0  0  0  0  0  0  0  0
    6.0831    3.4038    0.5492 H   0  0  0  0  0  0  0  0  0  0  0  0
    6.5644    1.0100   -0.4369 H   0  0  0  0  0  0  0  0  0  0  0  0
    2.9792   -0.8389   -0.6344 H   0  0  0  0  0  0  0  0  0  0  0  0
    5.8394   -0.2597   -2.8414 H   0  0  0  0  0  0  0  0  0  0  0  0
    7.4877   -0.3681   -2.1706 H   0  0  0  0  0  0  0  0  0  0  0  0
    6.9851   -1.5056   -3.5236 H   0  0  0  0  0  0  0  0  0  0  0  0
    6.1838   -4.0355   -1.2719 H   0  0  0  0  0  0  0  0  0  0  0  0
    7.4275   -3.3988   -2.3847 H   0  0  0  0  0  0  0  0  0  0  0  0
    5.6756   -3.4748   -2.9633 H   0  0  0  0  0  0  0  0  0  0  0  0
    8.5118   -1.3112   -0.3242 H   0  0  0  0  0  0  0  0  0  0  0  0
  1  2  1  0
  2  3  1  0
  3  4  1  0
  4  5  1  0
  5  6  1  0
  6  7  1  0
  5  8  1  0
  8  9  1  0
  9 10  2  0
  9 11  1  0
 11 12  2  0
 12 13  1  0
 13 14  2  0
 14 15  1  0
 15 16  2  0
 14 17  1  0
 17 18  1  0
 18 19  2  0
 19 20  1  0
 20 21  2  0
 21 22  1  0
 22 23  1  0
 23 24  2  0
 23 25  1  0
 25 26  1  0
 25 27  1  0
 25 28  1  0
 16 11  1  0
 21 17  1  0
  1 29  1  0
  1 30  1  0
  1 31  1  0
  2 32  1  0
  2 33  1  0
  3 34  1  0
  3 35  1  0
  4 36  1  0
  4 37  1  0
  5 38  1  0
  6 39  1  0
  6 40  1  0
  7 41  1  0
  7 42  1  0
  7 43  1  0
 12 44  1  0
 13 45  1  0
 15 46  1  0
 16 47  1  0
 19 48  1  0
 20 49  1  0
 22 50  1  0
 26 51  1  0
 26 52  1  0
 26 53  1  0
 27 54  1  0
 27 55  1  0
 27 56  1  0
 28 57  1  0
M  END
$$$$
[H]c1c([H])c(C(F)(F)F)c([H])c([H])c1OC1([H])C([H])([H])C([H])([H])N(C(=O)c2nnc3c([H])c([H])c([H])c([H])c3c2N2C([H])([H])C([H])([H])C([H])([H])C([H])([H])C2([H])[H])C([H])([H])C1([H])[H]
     RDKit          3D

 62 66  0  0  0  0  0  0  0  0999 V2000
    9.4127   -0.6621   -1.4748 F   0  0  0  0  0  0  0  0  0  0  0  0
    9.0577   -0.5331   -0.1457 C   0  0  0  0  0  0  0  0  0  0  0  0
    9.5506   -1.6979    0.4679 F   0  0  0  0  0  0  0  0  0  0  0  0
    9.7178    0.5716    0.3592 F   0  0  0  0  0  0  0  0  0  0  0  0
    7.5932   -0.4724    0.0330 C   0  0  0  0  0  0  0  0  0  0  0  0
    6.6926   -0.8060   -0.9338 C   0  0  0  0  0  0  0  0  0  0  0  0
    5.3410   -0.7216   -0.7436 C   0  0  0  0  0  0  0  0  0  0  0  0
    4.8198   -0.2562    0.5439 C   0  0  0  0  0  0  0  0  0  0  0  0
    3.4946   -0.1929    0.6715 O   0  0  0  0  0  0  0  0  0  0  0  0
    2.6825    0.3438    1.7245 C   0  0  0  0  0  0  0  0  0  0  0  0
    1.7680   -0.6830    2.2863 C   0  0  0  0  0  0  0  0  0  0  0  0
    0.4917   -0.0882    2.8573 C   0  0  0  0  0  0  0  0  0  0  0  0
   -0.0429    0.7648    1.7585 N   0  0  0  0  0  0  0  0  0  0  0  0
    0.6929    1.9460    1.6107 C   0  0  0  0  0  0  0  0  0  0  0  0
    2.0950    1.5749    1.1322 C   0  0  0  0  0  0  0  0  0  0  0  0
   -1.1558    0.2261    0.9942 C   0  0  0  0  0  0  0  0  0  0  0  0
   -1.5221   -0.8965    1.3585 O   0  0  0  0  0  0  0  0  0  0  0  0
   -1.7542    0.9560   -0.0707 C   0  0  0  0  0  0  0  0  0  0  0  0
   -1.3384    2.2160   -0.4455 N   0  0  0  0  0  0  0  0  0  0  0  0
   -1.7983    2.9474   -1.3700 N   0  0  0  0  0  0  0  0  0  0  0  0
   -2.8311    2.5597   -2.1536 C   0  0  0  0  0  0  0  0  0  0  0  0
   -3.3067    3.3579   -3.1538 C   0  0  0  0  0  0  0  0  0  0  0  0
   -4.3428    2.8238   -3.9085 C   0  0  0  0  0  0  0  0  0  0  0  0
   -4.8569    1.5921   -3.6821 C   0  0  0  0  0  0  0  0  0  0  0  0
   -4.3513    0.8221   -2.6542 C   0  0  0  0  0  0  0  0  0  0  0  0
   -3.3256    1.2928   -1.8546 C   0  0  0  0  0  0  0  0  0  0  0  0
   -2.8085    0.4913   -0.8272 C   0  0  0  0  0  0  0  0  0  0  0  0
   -3.4920   -0.7028   -0.5038 N   0  0  0  0  0  0  0  0  0  0  0  0
   -4.6398   -0.5807    0.4079 C   0  0  0  0  0  0  0  0  0  0  0  0
   -5.7971   -1.4205   -0.0462 C   0  0  0  0  0  0  0  0  0  0  0  0
   -5.4071   -2.8862   -0.1175 C   0  0  0  0  0  0  0  0  0  0  0  0
   -3.9122   -3.0199   -0.0834 C   0  0  0  0  0  0  0  0  0  0  0  0
   -3.2217   -2.0181   -0.9750 C   0  0  0  0  0  0  0  0  0  0  0  0
    5.7511    0.0465    1.4400 C   0  0  0  0  0  0  0  0  0  0  0  0
    7.1074   -0.0264    1.2802 C   0  0  0  0  0  0  0  0  0  0  0  0
    7.0659   -1.1543   -1.9294 H   0  0  0  0  0  0  0  0  0  0  0  0
    4.6258   -0.9873   -1.4724 H   0  0  0  0  0  0  0  0  0  0  0  0
    3.4359    0.7006    2.4808 H   0  0  0  0  0  0  0  0  0  0  0  0
    2.3028   -1.2694    3.1145 H   0  0  0  0  0  0  0  0  0  0  0  0
    1.4496   -1.3974    1.4693 H   0  0  0  0  0  0  0  0  0  0  0  0
   -0.2112   -0.8982    3.0637 H   0  0  0  0  0  0  0  0  0  0  0  0
    0.7246    0.5633    3.7289 H   0  0  0  0  0  0  0  0  0  0  0  0
    0.8970    2.5258    2.5916 H   0  0  0  0  0  0  0  0  0  0  0  0
    0.2960    2.6465    0.8951 H   0  0  0  0  0  0  0  0  0  0  0  0
    1.9762    1.4016    0.0184 H   0  0  0  0  0  0  0  0  0  0  0  0
    2.7922    2.4358    1.2355 H   0  0  0  0  0  0  0  0  0  0  0  0
   -2.9115    4.3389   -3.3201 H   0  0  0  0  0  0  0  0  0  0  0  0
   -4.7716    3.4167   -4.7215 H   0  0  0  0  0  0  0  0  0  0  0  0
   -5.6719    1.1278   -4.2713 H   0  0  0  0  0  0  0  0  0  0  0  0
   -4.7363   -0.1666   -2.4856 H   0  0  0  0  0  0  0  0  0  0  0  0
   -4.9312    0.4928    0.5244 H   0  0  0  0  0  0  0  0  0  0  0  0
   -4.3538   -0.9221    1.4357 H   0  0  0  0  0  0  0  0  0  0  0  0
   -6.6607   -1.2759    0.6686 H   0  0  0  0  0  0  0  0  0  0  0  0
   -6.2009   -1.0825   -1.0286 H   0  0  0  0  0  0  0  0  0  0  0  0
   -5.8125   -3.3743   -1.0515 H   0  0  0  0  0  0  0  0  0  0  0  0
   -5.8908   -3.3646    0.7941 H   0  0  0  0  0  0  0  0  0  0  0  0
   -3.6278   -2.7705    0.9808 H   0  0  0  0  0  0  0  0  0  0  0  0
   -3.5893   -4.0690   -0.2504 H   0  0  0  0  0  0  0  0  0  0  0  0
   -2.1362   -2.2598   -1.0824 H   0  0  0  0  0  0  0  0  0  0  0  0
   -3.6256   -2.1664   -2.0301 H   0  0  0  0  0  0  0  0  0  0  0  0
    5.4288    0.4186    2.4653 H   0  0  0  0  0  0  0  0  0  0  0  0
    7.7721    0.2215    2.0621 H   0  0  0  0  0  0  0  0  0  0  0  0
  1  2  1  0
  2  3  1  0
  2  4  1  0
  2  5  1  0
  5  6  2  0
  6  7  1  0
  7  8  2  0
  8  9  1  0
  9 10  1  0
 10 11  1  0
 11 12  1  0
 12 13  1  0
 13 14  1  0
 14 15  1  0
 13 16  1  0
 16 17  2  0
 16 18  1  0
 18 19  2  0
 19 20  1  0
 20 21  2  0
 21 22  1  0
 22 23  2  0
 23 24  1  0
 24 25  2  0
 25 26  1  0
 26 27  2  0
 27 28  1  0
 28 29  1  0
 29 30  1  0
 30 31  1  0
 31 32  1  0
 32 33  1  0
  8 34  1  0
 34 35  2  0
 35  5  1  0
 15 10  1  0
 27 18  1  0
 33 28  1  0
 26 21  1  0
  6 36  1  0
  7 37  1  0
 10 38  1  0
 11 39  1  0
 11 40  1  0
 12 41  1  0
 12 42  1  0
 14 43  1  0
 14 44  1  0
 15 45  1  0
 15 46  1  0
 22 47  1  0
 23 48  1  0
 24 49  1  0
 25 50  1  0
 29 51  1  0
 29 52  1  0
 30 53  1  0
 30 54  1  0
 31 55  1  0
 31 56  1  0
 32 57  1  0
 32 58  1  0
 33 59  1  0
 33 60  1  0
 34 61  1  0
 35 62  1  0
M  END
$$$$
[H]c1nc(N([H])[H])c([H])c(N([H])c2nc(-c3c([H])nc([H])c([H])c3[H])c([H])c(N(C([H])([H])[H])C([H])([H])[H])c2[H])n1
     RDKit          3D

 40 42  0  0  0  0  0  0  0  0999 V2000
   -2.9112   -3.5490   -1.0877 C   0  0  0  0  0  0  0  0  0  0  0  0
   -2.7875   -2.6395    0.0258 N   0  0  0  0  0  0  0  0  0  0  0  0
   -3.7159   -2.6898    1.1372 C   0  0  0  0  0  0  0  0  0  0  0  0
   -1.7415   -1.6599    0.0511 C   0  0  0  0  0  0  0  0  0  0  0  0
   -0.4252   -2.0542    0.0606 C   0  0  0  0  0  0  0  0  0  0  0  0
    0.6537   -1.1461    0.0946 C   0  0  0  0  0  0  0  0  0  0  0  0
    1.9785   -1.6402    0.0869 N   0  0  0  0  0  0  0  0  0  0  0  0
    3.1985   -0.9905    0.1409 C   0  0  0  0  0  0  0  0  0  0  0  0
    3.3223    0.3641    0.2530 C   0  0  0  0  0  0  0  0  0  0  0  0
    4.5872    0.9389    0.2939 C   0  0  0  0  0  0  0  0  0  0  0  0
    4.7539    2.3361    0.4092 N   0  0  0  0  0  0  0  0  0  0  0  0
    5.6460    0.1323    0.2205 N   0  0  0  0  0  0  0  0  0  0  0  0
    5.5090   -1.2181    0.1092 C   0  0  0  0  0  0  0  0  0  0  0  0
    4.3200   -1.7856    0.0686 N   0  0  0  0  0  0  0  0  0  0  0  0
    0.2796    0.1402    0.1171 N   0  0  0  0  0  0  0  0  0  0  0  0
   -0.9558    0.6206    0.1106 C   0  0  0  0  0  0  0  0  0  0  0  0
   -1.9840   -0.3045    0.0768 C   0  0  0  0  0  0  0  0  0  0  0  0
   -1.2176    2.0628    0.1349 C   0  0  0  0  0  0  0  0  0  0  0  0
   -2.4919    2.5823    0.1571 C   0  0  0  0  0  0  0  0  0  0  0  0
   -2.7007    3.9744    0.1772 C   0  0  0  0  0  0  0  0  0  0  0  0
   -1.5952    4.7964    0.1737 C   0  0  0  0  0  0  0  0  0  0  0  0
   -0.3521    4.3092    0.1520 N   0  0  0  0  0  0  0  0  0  0  0  0
   -0.1932    2.9791    0.1337 C   0  0  0  0  0  0  0  0  0  0  0  0
   -2.1520   -3.2579   -1.8664 H   0  0  0  0  0  0  0  0  0  0  0  0
   -2.5813   -4.5934   -0.7852 H   0  0  0  0  0  0  0  0  0  0  0  0
   -3.8925   -3.5603   -1.5668 H   0  0  0  0  0  0  0  0  0  0  0  0
   -4.5456   -3.3879    0.9293 H   0  0  0  0  0  0  0  0  0  0  0  0
   -3.2464   -3.0126    2.0857 H   0  0  0  0  0  0  0  0  0  0  0  0
   -4.1014   -1.6450    1.2463 H   0  0  0  0  0  0  0  0  0  0  0  0
   -0.1892   -3.1085    0.0432 H   0  0  0  0  0  0  0  0  0  0  0  0
    2.0346   -2.7186    0.0257 H   0  0  0  0  0  0  0  0  0  0  0  0
    2.5099    1.0482    0.3200 H   0  0  0  0  0  0  0  0  0  0  0  0
    5.6736    2.8150    0.3609 H   0  0  0  0  0  0  0  0  0  0  0  0
    3.8969    2.9350    0.5521 H   0  0  0  0  0  0  0  0  0  0  0  0
    6.4039   -1.8260    0.0533 H   0  0  0  0  0  0  0  0  0  0  0  0
   -3.0187   -0.0090    0.0675 H   0  0  0  0  0  0  0  0  0  0  0  0
   -3.3308    1.9296    0.1596 H   0  0  0  0  0  0  0  0  0  0  0  0
   -3.7206    4.3434    0.1954 H   0  0  0  0  0  0  0  0  0  0  0  0
   -1.7348    5.8662    0.1896 H   0  0  0  0  0  0  0  0  0  0  0  0
    0.8175    2.6225    0.1153 H   0  0  0  0  0  0  0  0  0  0  0  0
  1  2  1  0
  2  3  1  0
  2  4  1  0
  4  5  2  0
  5  6  1  0
  6  7  1  0
  7  8  1  0
  8  9  2  0
  9 10  1  0
 10 11  1  0
 10 12  2  0
 12 13  1  0
 13 14  2  0
  6 15  2  0
 15 16  1  0
 16 17  2  0
 16 18  1  0
 18 19  2  0
 19 20  1  0
 20 21  2  0
 21 22  1  0
 22 23  2  0
 17  4  1  0
 23 18  1  0
 14  8  1  0
  1 24  1  0
  1 25  1  0
  1 26  1  0
  3 27  1  0
  3 28  1  0
  3 29  1  0
  5 30  1  0
  7 31  1  0
  9 32  1  0
 11 33  1  0
 11 34  1  0
 13 35  1  0
 17 36  1  0
 19 37  1  0
 20 38  1  0
 21 39  1  0
 23 40  1  0
M  END
$$$$
[H]c1c(C#CC([H])([H])N([H])C(=O)C([H])([H])N2C([H])([H])C([H])([H])N([H])C([H])([H])C2([H])[H])c([H])c2c(nc([H])c3nc(C([H])([H])[H])n(C([H])([H])C([H])([H])[H])c32)c1[H]
     RDKit          3D

 55 58  0  0  0  0  0  0  0  0999 V2000
   -5.1878   -1.9849   -1.2618 C   0  0  0  0  0  0  0  0  0  0  0  0
   -5.4903   -1.3961    0.0963 C   0  0  0  0  0  0  0  0  0  0  0  0
   -5.9604   -0.0596    0.0804 N   0  0  0  0  0  0  0  0  0  0  0  0
   -7.3060    0.1886   -0.0902 C   0  0  0  0  0  0  0  0  0  0  0  0
   -8.3726   -0.8230   -0.3592 C   0  0  0  0  0  0  0  0  0  0  0  0
   -7.5508    1.4972   -0.0087 N   0  0  0  0  0  0  0  0  0  0  0  0
   -6.3942    2.1174    0.2095 C   0  0  0  0  0  0  0  0  0  0  0  0
   -6.0723    3.4561    0.3956 C   0  0  0  0  0  0  0  0  0  0  0  0
   -4.8040    3.7786    0.6229 N   0  0  0  0  0  0  0  0  0  0  0  0
   -3.8115    2.8659    0.6779 C   0  0  0  0  0  0  0  0  0  0  0  0
   -2.5185    3.2904    0.8771 C   0  0  0  0  0  0  0  0  0  0  0  0
   -1.5362    2.3813    0.8843 C   0  0  0  0  0  0  0  0  0  0  0  0
   -1.8101    1.0217    0.6933 C   0  0  0  0  0  0  0  0  0  0  0  0
   -3.1213    0.5709    0.4965 C   0  0  0  0  0  0  0  0  0  0  0  0
   -4.1046    1.5232    0.4937 C   0  0  0  0  0  0  0  0  0  0  0  0
   -5.4094    1.1499    0.2614 C   0  0  0  0  0  0  0  0  0  0  0  0
   -0.7344    0.1214    0.5752 C   0  0  0  0  0  0  0  0  0  0  0  0
    0.2142   -0.5335    0.4074 C   0  0  0  0  0  0  0  0  0  0  0  0
    1.3563   -1.1514    0.1156 C   0  0  0  0  0  0  0  0  0  0  0  0
    2.5077   -1.7802   -0.1811 N   0  0  0  0  0  0  0  0  0  0  0  0
    3.7723   -1.1205    0.0580 C   0  0  0  0  0  0  0  0  0  0  0  0
    3.6410    0.0543    0.5881 O   0  0  0  0  0  0  0  0  0  0  0  0
    5.0999   -1.5768   -0.2110 C   0  0  0  0  0  0  0  0  0  0  0  0
    6.1356   -0.6807    0.1323 N   0  0  0  0  0  0  0  0  0  0  0  0
    6.2855    0.5245   -0.5940 C   0  0  0  0  0  0  0  0  0  0  0  0
    7.5311    1.2795   -0.0667 C   0  0  0  0  0  0  0  0  0  0  0  0
    8.6431    0.4612   -0.4383 N   0  0  0  0  0  0  0  0  0  0  0  0
    8.5475   -0.9212   -0.0678 C   0  0  0  0  0  0  0  0  0  0  0  0
    7.2851   -1.2798    0.6865 C   0  0  0  0  0  0  0  0  0  0  0  0
   -4.2253   -2.5432   -1.2567 H   0  0  0  0  0  0  0  0  0  0  0  0
   -5.0396   -1.1966   -2.0539 H   0  0  0  0  0  0  0  0  0  0  0  0
   -5.9449   -2.6649   -1.6600 H   0  0  0  0  0  0  0  0  0  0  0  0
   -4.8067   -1.7161    0.9111 H   0  0  0  0  0  0  0  0  0  0  0  0
   -6.4023   -2.0515    0.4234 H   0  0  0  0  0  0  0  0  0  0  0  0
   -9.3219   -0.3092   -0.6319 H   0  0  0  0  0  0  0  0  0  0  0  0
   -8.6110   -1.4075    0.5493 H   0  0  0  0  0  0  0  0  0  0  0  0
   -8.0957   -1.4511   -1.2138 H   0  0  0  0  0  0  0  0  0  0  0  0
   -6.8537    4.1743    0.3467 H   0  0  0  0  0  0  0  0  0  0  0  0
   -2.3342    4.3567    1.0221 H   0  0  0  0  0  0  0  0  0  0  0  0
   -0.5314    2.6969    1.0353 H   0  0  0  0  0  0  0  0  0  0  0  0
   -3.2220   -0.4567    0.3558 H   0  0  0  0  0  0  0  0  0  0  0  0
    1.9012   -0.8294    1.3514 H   0  0  0  0  0  0  0  0  0  0  0  0
    0.9864   -2.2610    0.8954 H   0  0  0  0  0  0  0  0  0  0  0  0
    2.6201   -2.7588   -0.6046 H   0  0  0  0  0  0  0  0  0  0  0  0
    5.3190   -2.5560    0.3062 H   0  0  0  0  0  0  0  0  0  0  0  0
    5.2562   -1.8737   -1.3041 H   0  0  0  0  0  0  0  0  0  0  0  0
    6.4754    0.3940   -1.6740 H   0  0  0  0  0  0  0  0  0  0  0  0
    5.4524    1.2574   -0.4212 H   0  0  0  0  0  0  0  0  0  0  0  0
    7.5639    2.2480   -0.5778 H   0  0  0  0  0  0  0  0  0  0  0  0
    7.4108    1.4380    0.9985 H   0  0  0  0  0  0  0  0  0  0  0  0
    8.8260    0.6131   -1.4644 H   0  0  0  0  0  0  0  0  0  0  0  0
    9.3986   -1.1429    0.6278 H   0  0  0  0  0  0  0  0  0  0  0  0
    8.6950   -1.5912   -0.9493 H   0  0  0  0  0  0  0  0  0  0  0  0
    7.1865   -2.3828    0.6257 H   0  0  0  0  0  0  0  0  0  0  0  0
    7.4623   -0.9603    1.7530 H   0  0  0  0  0  0  0  0  0  0  0  0
  1  2  1  0
  2  3  1  0
  3  4  1  0
  4  5  1  0
  4  6  2  0
  6  7  1  0
  7  8  2  0
  8  9  1  0
  9 10  2  0
 10 11  1  0
 11 12  2  0
 12 13  1  0
 13 14  2  0
 14 15  1  0
 15 16  2  0
 13 17  1  0
 17 18  3  0
 18 19  1  0
 19 20  1  0
 20 21  1  0
 21 22  2  0
 21 23  1  0
 23 24  1  0
 24 25  1  0
 25 26  1  0
 26 27  1  0
 27 28  1  0
 28 29  1  0
 16  3  1  0
 29 24  1  0
 16  7  1  0
 15 10  1  0
  1 30  1  0
  1 31  1  0
  1 32  1  0
  2 33  1  0
  2 34  1  0
  5 35  1  0
  5 36  1  0
  5 37  1  0
  8 38  1  0
 11 39  1  0
 12 40  1  0
 14 41  1  0
 19 42  1  0
 19 43  1  0
 20 44  1  0
 23 45  1  0
 23 46  1  0
 25 47  1  0
 25 48  1  0
 26 49  1  0
 26 50  1  0
 27 51  1  0
 28 52  1  0
 28 53  1  0
 29 54  1  0
 29 55  1  0
M  END
$$$$
[H]c1nnn([H])c1C12C([H])([H])C(N([H])C(=O)C(=O)c3c(C([H])([H])[H])c(C(=O)N([H])c4c([H])c([H])c(F)c(F)c4[H])n4c3C([H])([H])C([H])([H])C4([H])[H])(C1([H])[H])C2([H])[H]
     RDKit          3D

 57 62  0  0  0  0  0  0  0  0999 V2000
   -1.1688    2.3550    1.1687 C   0  0  0  0  0  0  0  0  0  0  0  0
   -1.3671    0.9650    0.5946 C   0  0  0  0  0  0  0  0  0  0  0  0
   -0.3598    0.0497    0.4595 C   0  0  0  0  0  0  0  0  0  0  0  0
    1.0343   -0.0131    0.8242 C   0  0  0  0  0  0  0  0  0  0  0  0
    1.2909   -0.5706    1.9557 O   0  0  0  0  0  0  0  0  0  0  0  0
    2.2032    0.4395    0.1031 C   0  0  0  0  0  0  0  0  0  0  0  0
    2.0605    1.3662   -0.7494 O   0  0  0  0  0  0  0  0  0  0  0  0
    3.4635   -0.1873    0.3792 N   0  0  0  0  0  0  0  0  0  0  0  0
    4.6478    0.0547   -0.1184 C   0  0  0  0  0  0  0  0  0  0  0  0
    5.7221   -1.0543   -0.1136 C   0  0  0  0  0  0  0  0  0  0  0  0
    6.4938    0.2133   -0.3422 C   0  0  0  0  0  0  0  0  0  0  0  0
    5.3444    0.6711   -1.2003 C   0  0  0  0  0  0  0  0  0  0  0  0
    5.7385    0.7674    0.7922 C   0  0  0  0  0  0  0  0  0  0  0  0
    7.8192    0.2334   -0.6809 C   0  0  0  0  0  0  0  0  0  0  0  0
    8.8027   -0.5665   -0.0750 C   0  0  0  0  0  0  0  0  0  0  0  0
    9.9883   -0.3198   -0.6542 N   0  0  0  0  0  0  0  0  0  0  0  0
    9.7842    0.5811   -1.5807 N   0  0  0  0  0  0  0  0  0  0  0  0
    8.4877    0.9263   -1.6151 N   0  0  0  0  0  0  0  0  0  0  0  0
   -1.0314   -1.0761   -0.0961 C   0  0  0  0  0  0  0  0  0  0  0  0
   -0.7520   -2.4896   -0.5412 C   0  0  0  0  0  0  0  0  0  0  0  0
   -2.1443   -3.1167   -0.4180 C   0  0  0  0  0  0  0  0  0  0  0  0
   -2.9993   -1.9298   -0.8642 C   0  0  0  0  0  0  0  0  0  0  0  0
   -2.3155   -0.8154   -0.2591 N   0  0  0  0  0  0  0  0  0  0  0  0
   -2.5418    0.4682    0.1748 C   0  0  0  0  0  0  0  0  0  0  0  0
   -3.9008    1.0642    0.0494 C   0  0  0  0  0  0  0  0  0  0  0  0
   -4.1073    2.2053   -0.4121 O   0  0  0  0  0  0  0  0  0  0  0  0
   -5.0135    0.2829    0.4733 N   0  0  0  0  0  0  0  0  0  0  0  0
   -6.3822    0.5533    0.3954 C   0  0  0  0  0  0  0  0  0  0  0  0
   -7.1671    0.2470    1.5154 C   0  0  0  0  0  0  0  0  0  0  0  0
   -8.5165    0.3956    1.5128 C   0  0  0  0  0  0  0  0  0  0  0  0
   -9.1533    0.8506    0.3970 C   0  0  0  0  0  0  0  0  0  0  0  0
  -10.4988    1.0119    0.3288 F   0  0  0  0  0  0  0  0  0  0  0  0
   -8.4152    1.1707   -0.7491 C   0  0  0  0  0  0  0  0  0  0  0  0
   -9.0196    1.6123   -1.8847 F   0  0  0  0  0  0  0  0  0  0  0  0
   -7.0448    1.0181   -0.7295 C   0  0  0  0  0  0  0  0  0  0  0  0
   -0.8942    2.9956    0.3341 H   0  0  0  0  0  0  0  0  0  0  0  0
   -0.3689    2.2761    1.9057 H   0  0  0  0  0  0  0  0  0  0  0  0
   -2.1278    2.6646    1.6389 H   0  0  0  0  0  0  0  0  0  0  0  0
    3.3639   -0.9746    1.1169 H   0  0  0  0  0  0  0  0  0  0  0  0
    5.8416   -1.5518    0.8252 H   0  0  0  0  0  0  0  0  0  0  0  0
    5.6423   -1.6779   -1.0453 H   0  0  0  0  0  0  0  0  0  0  0  0
    5.3001    1.7899   -1.3200 H   0  0  0  0  0  0  0  0  0  0  0  0
    5.2893    0.1618   -2.1951 H   0  0  0  0  0  0  0  0  0  0  0  0
    5.5274    1.8428    0.7815 H   0  0  0  0  0  0  0  0  0  0  0  0
    5.8280    0.2614    1.7655 H   0  0  0  0  0  0  0  0  0  0  0  0
    8.6658   -1.2763    0.7337 H   0  0  0  0  0  0  0  0  0  0  0  0
    8.1101    1.6242   -2.2877 H   0  0  0  0  0  0  0  0  0  0  0  0
   -0.4638   -2.5471   -1.5847 H   0  0  0  0  0  0  0  0  0  0  0  0
   -0.0381   -2.9545    0.1716 H   0  0  0  0  0  0  0  0  0  0  0  0
   -2.3985   -3.3545    0.6094 H   0  0  0  0  0  0  0  0  0  0  0  0
   -2.2912   -3.9558   -1.1033 H   0  0  0  0  0  0  0  0  0  0  0  0
   -2.9225   -1.8170   -1.9813 H   0  0  0  0  0  0  0  0  0  0  0  0
   -4.0167   -2.0893   -0.5980 H   0  0  0  0  0  0  0  0  0  0  0  0
   -4.7630   -0.6523    0.9526 H   0  0  0  0  0  0  0  0  0  0  0  0
   -6.6846   -0.1361    2.4235 H   0  0  0  0  0  0  0  0  0  0  0  0
   -9.1157    0.1480    2.4103 H   0  0  0  0  0  0  0  0  0  0  0  0
   -6.4657    1.2599   -1.5938 H   0  0  0  0  0  0  0  0  0  0  0  0
  1  2  1  0
  2  3  1  0
  3  4  1  0
  4  5  2  0
  4  6  1  0
  6  7  2  0
  6  8  1  0
  8  9  1  0
  9 10  1  0
 10 11  1  0
 11 12  1  0
 11 13  1  0
 11 14  1  0
 14 15  2  0
 15 16  1  0
 16 17  2  0
 17 18  1  0
  3 19  2  0
 19 20  1  0
 20 21  1  0
 21 22  1  0
 22 23  1  0
 23 24  1  0
 24 25  1  0
 25 26  2  0
 25 27  1  0
 27 28  1  0
 28 29  2  0
 29 30  1  0
 30 31  2  0
 31 32  1  0
 31 33  1  0
 33 34  1  0
 33 35  2  0
 24  2  2  0
 35 28  1  0
 12  9  1  0
 18 14  1  0
 23 19  1  0
 13  9  1  0
  1 36  1  0
  1 37  1  0
  1 38  1  0
  8 39  1  0
 10 40  1  0
 10 41  1  0
 12 42  1  0
 12 43  1  0
 13 44  1  0
 13 45  1  0
 15 46  1  0
 18 47  1  0
 20 48  1  0
 20 49  1  0
 21 50  1  0
 21 51  1  0
 22 52  1  0
 22 53  1  0
 27 54  1  0
 29 55  1  0
 30 56  1  0
 35 57  1  0
M  END
$$$$
[H]c1c([H])c(N([H])[H])c(Cl)c([H])c1-c1c([H])c([H])c([H])c2c([H])nc(N([H])c3c([H])c(OC([H])([H])[H])c(OC([H])([H])[H])c(OC([H])([H])[H])c3[H])nc12
     RDKit          3D

 52 55  0  0  0  0  0  0  0  0999 V2000
   -3.9600   -0.5294   -3.6990 C   0  0  0  0  0  0  0  0  0  0  0  0
   -4.7400   -0.0814   -2.6299 O   0  0  0  0  0  0  0  0  0  0  0  0
   -4.0766    0.2631   -1.4369 C   0  0  0  0  0  0  0  0  0  0  0  0
   -2.6922    0.1626   -1.3217 C   0  0  0  0  0  0  0  0  0  0  0  0
   -2.0447    0.4954   -0.1652 C   0  0  0  0  0  0  0  0  0  0  0  0
   -0.6623    0.3999    0.0260 N   0  0  0  0  0  0  0  0  0  0  0  0
    0.2546   -0.3346   -0.7347 C   0  0  0  0  0  0  0  0  0  0  0  0
   -0.0410   -1.0879   -1.7788 N   0  0  0  0  0  0  0  0  0  0  0  0
    0.8081   -1.8012   -2.5264 C   0  0  0  0  0  0  0  0  0  0  0  0
    2.1618   -1.7652   -2.1904 C   0  0  0  0  0  0  0  0  0  0  0  0
    3.0758   -2.4864   -2.9278 C   0  0  0  0  0  0  0  0  0  0  0  0
    4.4022   -2.4461   -2.5851 C   0  0  0  0  0  0  0  0  0  0  0  0
    4.7840   -1.6868   -1.5149 C   0  0  0  0  0  0  0  0  0  0  0  0
    3.8534   -0.9548   -0.7675 C   0  0  0  0  0  0  0  0  0  0  0  0
    4.2726   -0.1428    0.3649 C   0  0  0  0  0  0  0  0  0  0  0  0
    3.8859    1.1652    0.5338 C   0  0  0  0  0  0  0  0  0  0  0  0
    4.3028    1.9110    1.6390 C   0  0  0  0  0  0  0  0  0  0  0  0
    5.1186    1.3703    2.6068 C   0  0  0  0  0  0  0  0  0  0  0  0
    5.5483    2.1354    3.7437 N   0  0  0  0  0  0  0  0  0  0  0  0
    5.5106    0.0599    2.4444 C   0  0  0  0  0  0  0  0  0  0  0  0
    6.5491   -0.6511    3.6624 Cl  0  0  0  0  0  0  0  0  0  0  0  0
    5.0995   -0.6754    1.3549 C   0  0  0  0  0  0  0  0  0  0  0  0
    2.5174   -0.9861   -1.1001 C   0  0  0  0  0  0  0  0  0  0  0  0
    1.5986   -0.3049   -0.4091 N   0  0  0  0  0  0  0  0  0  0  0  0
   -2.8586    0.9416    0.8876 C   0  0  0  0  0  0  0  0  0  0  0  0
   -4.2035    1.0480    0.8000 C   0  0  0  0  0  0  0  0  0  0  0  0
   -4.9404    1.5002    1.8928 O   0  0  0  0  0  0  0  0  0  0  0  0
   -4.2486    1.8365    3.0704 C   0  0  0  0  0  0  0  0  0  0  0  0
   -4.8115    0.7002   -0.3862 C   0  0  0  0  0  0  0  0  0  0  0  0
   -6.2011    0.8221   -0.4411 O   0  0  0  0  0  0  0  0  0  0  0  0
   -6.9393   -0.3413   -0.0453 C   0  0  0  0  0  0  0  0  0  0  0  0
   -3.2465    0.2494   -4.0647 H   0  0  0  0  0  0  0  0  0  0  0  0
   -3.4129   -1.4541   -3.4169 H   0  0  0  0  0  0  0  0  0  0  0  0
   -4.6181   -0.8148   -4.5529 H   0  0  0  0  0  0  0  0  0  0  0  0
   -2.2023   -0.1798   -2.2153 H   0  0  0  0  0  0  0  0  0  0  0  0
   -0.2553    0.9560    0.8477 H   0  0  0  0  0  0  0  0  0  0  0  0
    0.5194   -2.4010   -3.3692 H   0  0  0  0  0  0  0  0  0  0  0  0
    2.6955   -3.0657   -3.7640 H   0  0  0  0  0  0  0  0  0  0  0  0
    5.1261   -2.9970   -3.1425 H   0  0  0  0  0  0  0  0  0  0  0  0
    5.8233   -1.6038   -1.1796 H   0  0  0  0  0  0  0  0  0  0  0  0
    3.2493    1.6282   -0.2094 H   0  0  0  0  0  0  0  0  0  0  0  0
    3.9866    2.9436    1.7554 H   0  0  0  0  0  0  0  0  0  0  0  0
    6.5370    2.4408    3.8670 H   0  0  0  0  0  0  0  0  0  0  0  0
    4.8794    2.4169    4.4964 H   0  0  0  0  0  0  0  0  0  0  0  0
    5.4027   -1.7082    1.2176 H   0  0  0  0  0  0  0  0  0  0  0  0
   -2.3524    1.2139    1.8266 H   0  0  0  0  0  0  0  0  0  0  0  0
   -3.7182    0.9310    3.4158 H   0  0  0  0  0  0  0  0  0  0  0  0
   -4.9526    2.1399    3.8708 H   0  0  0  0  0  0  0  0  0  0  0  0
   -3.4693    2.6106    2.8812 H   0  0  0  0  0  0  0  0  0  0  0  0
   -7.9285    0.0043    0.3191 H   0  0  0  0  0  0  0  0  0  0  0  0
   -6.3671   -0.8886    0.7261 H   0  0  0  0  0  0  0  0  0  0  0  0
   -7.0198   -0.9579   -0.9709 H   0  0  0  0  0  0  0  0  0  0  0  0
  1  2  1  0
  2  3  1  0
  3  4  2  0
  4  5  1  0
  5  6  1  0
  6  7  1  0
  7  8  2  0
  8  9  1  0
  9 10  2  0
 10 11  1  0
 11 12  2  0
 12 13  1  0
 13 14  2  0
 14 15  1  0
 15 16  2  0
 16 17  1  0
 17 18  2  0
 18 19  1  0
 18 20  1  0
 20 21  1  0
 20 22  2  0
 14 23  1  0
 23 24  2  0
  5 25  2  0
 25 26  1  0
 26 27  1  0
 27 28  1  0
 26 29  2  0
 29 30  1  0
 30 31  1  0
 29  3  1  0
 24  7  1  0
 23 10  1  0
 22 15  1  0
  1 32  1  0
  1 33  1  0
  1 34  1  0
  4 35  1  0
  6 36  1  0
  9 37  1  0
 11 38  1  0
 12 39  1  0
 13 40  1  0
 16 41  1  0
 17 42  1  0
 19 43  1  0
 19 44  1  0
 22 45  1  0
 25 46  1  0
 28 47  1  0
 28 48  1  0
 28 49  1  0
 31 50  1  0
 31 51  1  0
 31 52  1  0
M  END
$$$$
[H]c1c([H])c([H])c2c([H])c([H])c(N3C([H])([H])C([H])([H])N(C([H])([H])c4c([H])c([H])c5c(=O)n([H])c([H])nc5c4[H])C([H])([H])C3([H])[H])nc2c1[H]
     RDKit          3D

 49 53  0  0  0  0  0  0  0  0999 V2000
    7.3279    0.2065    1.5828 O   0  0  0  0  0  0  0  0  0  0  0  0
    6.4183   -0.6546    1.4204 C   0  0  0  0  0  0  0  0  0  0  0  0
    6.5142   -1.8695    1.9872 N   0  0  0  0  0  0  0  0  0  0  0  0
    5.5386   -2.7906    1.8122 C   0  0  0  0  0  0  0  0  0  0  0  0
    4.4867   -2.4546    1.0638 N   0  0  0  0  0  0  0  0  0  0  0  0
    4.3446   -1.2531    0.4757 C   0  0  0  0  0  0  0  0  0  0  0  0
    3.2485   -0.9263   -0.2946 C   0  0  0  0  0  0  0  0  0  0  0  0
    3.0964    0.3209   -0.9077 C   0  0  0  0  0  0  0  0  0  0  0  0
    1.9029    0.6392   -1.7297 C   0  0  0  0  0  0  0  0  0  0  0  0
    1.0590    1.5543   -1.0455 N   0  0  0  0  0  0  0  0  0  0  0  0
   -0.1249    1.9226   -1.7470 C   0  0  0  0  0  0  0  0  0  0  0  0
   -1.2475    2.1586   -0.7741 C   0  0  0  0  0  0  0  0  0  0  0  0
   -1.3903    0.9803    0.0615 N   0  0  0  0  0  0  0  0  0  0  0  0
   -0.2144    0.5116    0.7705 C   0  0  0  0  0  0  0  0  0  0  0  0
    0.9386    1.4052    0.3619 C   0  0  0  0  0  0  0  0  0  0  0  0
   -2.6317    0.3373    0.1632 C   0  0  0  0  0  0  0  0  0  0  0  0
   -2.7310   -0.7884    0.9636 C   0  0  0  0  0  0  0  0  0  0  0  0
   -3.9565   -1.4074    1.0533 C   0  0  0  0  0  0  0  0  0  0  0  0
   -5.0670   -0.9213    0.3623 C   0  0  0  0  0  0  0  0  0  0  0  0
   -6.3007   -1.5363    0.4464 C   0  0  0  0  0  0  0  0  0  0  0  0
   -7.3917   -1.0480   -0.2404 C   0  0  0  0  0  0  0  0  0  0  0  0
   -7.1851    0.0777   -1.0088 C   0  0  0  0  0  0  0  0  0  0  0  0
   -5.9688    0.7167   -1.1158 C   0  0  0  0  0  0  0  0  0  0  0  0
   -4.8949    0.1983   -0.4118 C   0  0  0  0  0  0  0  0  0  0  0  0
   -3.6955    0.8212   -0.5120 N   0  0  0  0  0  0  0  0  0  0  0  0
    4.1056    1.2396   -0.7123 C   0  0  0  0  0  0  0  0  0  0  0  0
    5.2077    0.9324    0.0532 C   0  0  0  0  0  0  0  0  0  0  0  0
    5.3229   -0.3126    0.6442 C   0  0  0  0  0  0  0  0  0  0  0  0
    7.3699   -2.0759    2.5678 H   0  0  0  0  0  0  0  0  0  0  0  0
    5.6867   -3.7451    2.2990 H   0  0  0  0  0  0  0  0  0  0  0  0
    2.4787   -1.6535   -0.4328 H   0  0  0  0  0  0  0  0  0  0  0  0
    1.4268   -0.3228   -2.0125 H   0  0  0  0  0  0  0  0  0  0  0  0
    2.2665    1.1291   -2.6590 H   0  0  0  0  0  0  0  0  0  0  0  0
    0.0773    2.9128   -2.2508 H   0  0  0  0  0  0  0  0  0  0  0  0
   -0.4094    1.2136   -2.5523 H   0  0  0  0  0  0  0  0  0  0  0  0
   -0.9996    3.0778   -0.1811 H   0  0  0  0  0  0  0  0  0  0  0  0
   -2.2181    2.3626   -1.3187 H   0  0  0  0  0  0  0  0  0  0  0  0
   -0.3907    0.6857    1.8568 H   0  0  0  0  0  0  0  0  0  0  0  0
   -0.0110   -0.5505    0.6179 H   0  0  0  0  0  0  0  0  0  0  0  0
    0.6669    2.4249    0.7724 H   0  0  0  0  0  0  0  0  0  0  0  0
    1.8973    1.0749    0.7946 H   0  0  0  0  0  0  0  0  0  0  0  0
   -1.8732   -1.1589    1.4935 H   0  0  0  0  0  0  0  0  0  0  0  0
   -4.0762   -2.3027    1.6771 H   0  0  0  0  0  0  0  0  0  0  0  0
   -6.3698   -2.4033    1.0652 H   0  0  0  0  0  0  0  0  0  0  0  0
   -8.3642   -1.5180   -0.1850 H   0  0  0  0  0  0  0  0  0  0  0  0
   -8.0074    0.5183   -1.5801 H   0  0  0  0  0  0  0  0  0  0  0  0
   -5.8650    1.5882   -1.7275 H   0  0  0  0  0  0  0  0  0  0  0  0
    3.9999    2.2063   -1.1802 H   0  0  0  0  0  0  0  0  0  0  0  0
    6.0027    1.6431    0.2131 H   0  0  0  0  0  0  0  0  0  0  0  0
  1  2  2  0
  2  3  1  0
  3  4  1  0
  4  5  2  0
  5  6  1  0
  6  7  2  0
  7  8  1  0
  8  9  1  0
  9 10  1  0
 10 11  1  0
 11 12  1  0
 12 13  1  0
 13 14  1  0
 14 15  1  0
 13 16  1  0
 16 17  2  0
 17 18  1  0
 18 19  2  0
 19 20  1  0
 20 21  2  0
 21 22  1  0
 22 23  2  0
 23 24  1  0
 24 25  2  0
  8 26  2  0
 26 27  1  0
 27 28  2  0
 28  2  1  0
 28  6  1  0
 15 10  1  0
 25 16  1  0
 24 19  1  0
  3 29  1  0
  4 30  1  0
  7 31  1  0
  9 32  1  0
  9 33  1  0
 11 34  1  0
 11 35  1  0
 12 36  1  0
 12 37  1  0
 14 38  1  0
 14 39  1  0
 15 40  1  0
 15 41  1  0
 17 42  1  0
 18 43  1  0
 20 44  1  0
 21 45  1  0
 22 46  1  0
 23 47  1  0
 26 48  1  0
 27 49  1  0
M  END
$$$$
[H]c1c([H])c(OC([H])([H])[H])c([H])c(C(=O)N([H])c2nn([H])c3c([H])c([H])c(C([H])([H])N4C([H])([H])C([H])([H])C([H])(F)C([H])([H])C4([H])[H])c([H])c23)c1[H]
     RDKit          3D

 51 54  0  0  0  0  0  0  0  0999 V2000
   -7.7252   -0.9218    2.2481 C   0  0  0  0  0  0  0  0  0  0  0  0
   -6.6023   -0.0955    2.1197 O   0  0  0  0  0  0  0  0  0  0  0  0
   -6.0679    0.2719    0.8828 C   0  0  0  0  0  0  0  0  0  0  0  0
   -6.6917   -0.2138   -0.2634 C   0  0  0  0  0  0  0  0  0  0  0  0
   -6.1577    0.1536   -1.4805 C   0  0  0  0  0  0  0  0  0  0  0  0
   -5.0491    0.9705   -1.5460 C   0  0  0  0  0  0  0  0  0  0  0  0
   -4.4247    1.4565   -0.4079 C   0  0  0  0  0  0  0  0  0  0  0  0
   -4.9595    1.0884    0.8087 C   0  0  0  0  0  0  0  0  0  0  0  0
   -3.2506    2.3235   -0.5047 C   0  0  0  0  0  0  0  0  0  0  0  0
   -3.4971    3.5623   -0.5600 O   0  0  0  0  0  0  0  0  0  0  0  0
   -1.9242    1.8768   -0.5380 N   0  0  0  0  0  0  0  0  0  0  0  0
   -1.5932    0.4835   -0.4781 C   0  0  0  0  0  0  0  0  0  0  0  0
   -2.4506   -0.5433   -0.3867 N   0  0  0  0  0  0  0  0  0  0  0  0
   -1.7554   -1.6677   -0.3568 N   0  0  0  0  0  0  0  0  0  0  0  0
   -0.4388   -1.3921   -0.4280 C   0  0  0  0  0  0  0  0  0  0  0  0
    0.7114   -2.1522   -0.4371 C   0  0  0  0  0  0  0  0  0  0  0  0
    1.9681   -1.5474   -0.5233 C   0  0  0  0  0  0  0  0  0  0  0  0
    2.1017   -0.1883   -0.6013 C   0  0  0  0  0  0  0  0  0  0  0  0
    3.4048    0.4972   -0.6915 C   0  0  0  0  0  0  0  0  0  0  0  0
    4.4824   -0.3169   -0.2600 N   0  0  0  0  0  0  0  0  0  0  0  0
    4.4104   -0.7117    1.0970 C   0  0  0  0  0  0  0  0  0  0  0  0
    5.3756   -0.0114    2.0108 C   0  0  0  0  0  0  0  0  0  0  0  0
    6.7684   -0.1268    1.4765 C   0  0  0  0  0  0  0  0  0  0  0  0
    7.6240    0.6268    2.2842 F   0  0  0  0  0  0  0  0  0  0  0  0
    6.7728    0.5397    0.1184 C   0  0  0  0  0  0  0  0  0  0  0  0
    5.7559   -0.0346   -0.8098 C   0  0  0  0  0  0  0  0  0  0  0  0
    0.9354    0.5841   -0.5922 C   0  0  0  0  0  0  0  0  0  0  0  0
   -0.3051   -0.0307   -0.5062 C   0  0  0  0  0  0  0  0  0  0  0  0
   -7.7655   -1.3204    3.3039 H   0  0  0  0  0  0  0  0  0  0  0  0
   -8.6895   -0.3904    2.1104 H   0  0  0  0  0  0  0  0  0  0  0  0
   -7.6591   -1.8354    1.5894 H   0  0  0  0  0  0  0  0  0  0  0  0
   -7.5582   -0.8518   -0.1932 H   0  0  0  0  0  0  0  0  0  0  0  0
   -6.6396   -0.2217   -2.3711 H   0  0  0  0  0  0  0  0  0  0  0  0
   -4.6163    1.2693   -2.4886 H   0  0  0  0  0  0  0  0  0  0  0  0
   -4.4862    1.4578    1.7197 H   0  0  0  0  0  0  0  0  0  0  0  0
   -1.1550    2.5754   -0.6083 H   0  0  0  0  0  0  0  0  0  0  0  0
   -2.1141   -2.6464   -0.2893 H   0  0  0  0  0  0  0  0  0  0  0  0
    0.6571   -3.2255   -0.3777 H   0  0  0  0  0  0  0  0  0  0  0  0
    2.8674   -2.1507   -0.5317 H   0  0  0  0  0  0  0  0  0  0  0  0
    3.3922    1.4856   -0.1541 H   0  0  0  0  0  0  0  0  0  0  0  0
    3.6260    0.7928   -1.7608 H   0  0  0  0  0  0  0  0  0  0  0  0
    4.5417   -1.8053    1.2435 H   0  0  0  0  0  0  0  0  0  0  0  0
    3.3670   -0.5013    1.4735 H   0  0  0  0  0  0  0  0  0  0  0  0
    5.1245    1.0620    2.1376 H   0  0  0  0  0  0  0  0  0  0  0  0
    5.3207   -0.4748    3.0014 H   0  0  0  0  0  0  0  0  0  0  0  0
    7.0803   -1.1683    1.3972 H   0  0  0  0  0  0  0  0  0  0  0  0
    7.7883    0.3878   -0.3041 H   0  0  0  0  0  0  0  0  0  0  0  0
    6.6714    1.6358    0.2801 H   0  0  0  0  0  0  0  0  0  0  0  0
    5.6016    0.7338   -1.6253 H   0  0  0  0  0  0  0  0  0  0  0  0
    6.1811   -0.9478   -1.2881 H   0  0  0  0  0  0  0  0  0  0  0  0
    1.0463    1.6591   -0.6541 H   0  0  0  0  0  0  0  0  0  0  0  0
  1  2  1  0
  2  3  1  0
  3  4  2  0
  4  5  1  0
  5  6  2  0
  6  7  1  0
  7  8  2  0
  7  9  1  0
  9 10  2  0
  9 11  1  0
 11 12  1  0
 12 13  2  0
 13 14  1  0
 14 15  1  0
 15 16  2  0
 16 17  1  0
 17 18  2  0
 18 19  1  0
 19 20  1  0
 20 21  1  0
 21 22  1  0
 22 23  1  0
 23 24  1  0
 23 25  1  0
 25 26  1  0
 18 27  1  0
 27 28  2  0
  8  3  1  0
 28 12  1  0
 28 15  1  0
 26 20  1  0
  1 29  1  0
  1 30  1  0
  1 31  1  0
  4 32  1  0
  5 33  1  0
  6 34  1  0
  8 35  1  0
 11 36  1  0
 14 37  1  0
 16 38  1  0
 17 39  1  0
 19 40  1  0
 19 41  1  0
 21 42  1  0
 21 43  1  0
 22 44  1  0
 22 45  1  0
 23 46  1  0
 25 47  1  0
 25 48  1  0
 26 49  1  0
 26 50  1  0
 27 51  1  0
M  END
$$$$
[H]ON([H])C(=O)C([H])([H])[C@]1([H])C([H])([H])N(C(=O)c2nc([H])c([H])c([H])c2[H])C([H])([H])[C@]1([H])c1c([H])c([H])c(F)c([H])c1[H]
     RDKit          3D

 43 45  0  0  0  0  0  0  0  0999 V2000
   -4.1191    3.0700   -1.4217 O   0  0  0  0  0  0  0  0  0  0  0  0
   -3.5291    2.8620   -0.2499 N   0  0  0  0  0  0  0  0  0  0  0  0
   -2.4442    1.9106   -0.1126 C   0  0  0  0  0  0  0  0  0  0  0  0
   -2.1253    1.3265   -1.1517 O   0  0  0  0  0  0  0  0  0  0  0  0
   -1.8241    1.7216    1.2243 C   0  0  0  0  0  0  0  0  0  0  0  0
   -0.7907    0.7216    1.3757 C   0  0  2  0  0  0  0  0  0  0  0  0
    0.4671    0.7736    0.5822 C   0  0  0  0  0  0  0  0  0  0  0  0
    1.1748   -0.3813    1.1076 N   0  0  0  0  0  0  0  0  0  0  0  0
    0.2879   -1.1558    1.9714 C   0  0  0  0  0  0  0  0  0  0  0  0
   -1.0756   -0.7150    1.5109 C   0  0  2  0  0  0  0  0  0  0  0  0
   -1.5607   -1.5193    0.4306 C   0  0  0  0  0  0  0  0  0  0  0  0
   -2.9062   -1.9315    0.5013 C   0  0  0  0  0  0  0  0  0  0  0  0
   -3.4869   -2.7257   -0.4631 C   0  0  0  0  0  0  0  0  0  0  0  0
   -2.7628   -3.1459   -1.5378 C   0  0  0  0  0  0  0  0  0  0  0  0
   -3.3973   -3.9299   -2.4561 F   0  0  0  0  0  0  0  0  0  0  0  0
   -1.4618   -2.7742   -1.6495 C   0  0  0  0  0  0  0  0  0  0  0  0
   -0.9005   -1.9771   -0.6699 C   0  0  0  0  0  0  0  0  0  0  0  0
    2.5262   -0.7136    0.8115 C   0  0  0  0  0  0  0  0  0  0  0  0
    3.0273   -1.7488    1.3655 O   0  0  0  0  0  0  0  0  0  0  0  0
    3.3163    0.0947   -0.0941 C   0  0  0  0  0  0  0  0  0  0  0  0
    4.6329   -0.2985   -0.3215 C   0  0  0  0  0  0  0  0  0  0  0  0
    5.4459    0.4048   -1.1586 C   0  0  0  0  0  0  0  0  0  0  0  0
    4.9611    1.5200   -1.7896 C   0  0  0  0  0  0  0  0  0  0  0  0
    3.6475    1.8903   -1.5464 C   0  0  0  0  0  0  0  0  0  0  0  0
    2.8836    1.1755   -0.7201 N   0  0  0  0  0  0  0  0  0  0  0  0
   -3.8860    3.9516   -1.8330 H   0  0  0  0  0  0  0  0  0  0  0  0
   -3.8510    3.3969    0.6056 H   0  0  0  0  0  0  0  0  0  0  0  0
   -2.6273    1.6921    2.0274 H   0  0  0  0  0  0  0  0  0  0  0  0
   -1.3804    2.7515    1.4413 H   0  0  0  0  0  0  0  0  0  0  0  0
   -0.3459    0.9758    2.4416 H   0  0  0  0  0  0  0  0  0  0  0  0
    0.3700    0.6390   -0.4855 H   0  0  0  0  0  0  0  0  0  0  0  0
    1.0826    1.6839    0.8711 H   0  0  0  0  0  0  0  0  0  0  0  0
    0.4194   -0.7849    3.0088 H   0  0  0  0  0  0  0  0  0  0  0  0
    0.4768   -2.2146    1.9635 H   0  0  0  0  0  0  0  0  0  0  0  0
   -1.7548   -0.8120    2.4369 H   0  0  0  0  0  0  0  0  0  0  0  0
   -3.5252   -1.6324    1.3228 H   0  0  0  0  0  0  0  0  0  0  0  0
   -4.5421   -3.0249   -0.3688 H   0  0  0  0  0  0  0  0  0  0  0  0
   -0.9023   -3.1197   -2.5135 H   0  0  0  0  0  0  0  0  0  0  0  0
    0.1114   -1.7141   -0.8031 H   0  0  0  0  0  0  0  0  0  0  0  0
    5.0130   -1.1707    0.1716 H   0  0  0  0  0  0  0  0  0  0  0  0
    6.4811    0.0852   -1.3298 H   0  0  0  0  0  0  0  0  0  0  0  0
    5.5935    2.0774   -2.4484 H   0  0  0  0  0  0  0  0  0  0  0  0
    3.2811    2.7652   -2.0469 H   0  0  0  0  0  0  0  0  0  0  0  0
  1  2  1  0
  2  3  1  0
  3  4  2  0
  3  5  1  0
  5  6  1  0
  6  7  1  0
  7  8  1  0
  8  9  1  0
  9 10  1  0
 10 11  1  0
 11 12  2  0
 12 13  1  0
 13 14  2  0
 14 15  1  0
 14 16  1  0
 16 17  2  0
  8 18  1  0
 18 19  2  0
 18 20  1  0
 20 21  2  0
 21 22  1  0
 22 23  2  0
 23 24  1  0
 24 25  2  0
 10  6  1  0
 17 11  1  0
 25 20  1  0
  1 26  1  0
  2 27  1  0
  5 28  1  0
  5 29  1  0
  6 30  1  1
  7 31  1  0
  7 32  1  0
  9 33  1  0
  9 34  1  0
 10 35  1  1
 12 36  1  0
 13 37  1  0
 16 38  1  0
 17 39  1  0
 21 40  1  0
 22 41  1  0
 23 42  1  0
 24 43  1  0
M  END
$$$$
[H]ON(C([H])=O)C([H])([H])[C@]([H])(C(=O)N([H])C([H])([H])C([H])([H])N1OC([H])([H])C1([H])[H])N1C(=O)c2c([H])c3c([H])c(Cl)c([H])c([H])c3n2C([H])([H])C1([H])[H]
     RDKit          3D

 52 55  0  0  0  0  0  0  0  0999 V2000
    2.3077   -2.1592    2.8327 O   0  0  0  0  0  0  0  0  0  0  0  0
    1.2250   -2.7117    2.2550 N   0  0  0  0  0  0  0  0  0  0  0  0
    0.2755   -1.9012    1.5735 C   0  0  0  0  0  0  0  0  0  0  0  0
    0.4306   -1.6938    0.1271 C   0  0  1  0  0  0  0  0  0  0  0  0
   -0.6377   -0.8466   -0.3539 N   0  0  0  0  0  0  0  0  0  0  0  0
   -1.5329   -1.3052   -1.3870 C   0  0  0  0  0  0  0  0  0  0  0  0
   -2.9539   -1.1121   -0.9440 C   0  0  0  0  0  0  0  0  0  0  0  0
   -3.2014    0.2384   -0.4896 N   0  0  0  0  0  0  0  0  0  0  0  0
   -2.2226    0.9718    0.0366 C   0  0  0  0  0  0  0  0  0  0  0  0
   -2.7387    2.1981    0.3995 C   0  0  0  0  0  0  0  0  0  0  0  0
   -4.0700    2.1955    0.0777 C   0  0  0  0  0  0  0  0  0  0  0  0
   -5.0501    3.1811    0.2327 C   0  0  0  0  0  0  0  0  0  0  0  0
   -6.3145    2.8639   -0.1980 C   0  0  0  0  0  0  0  0  0  0  0  0
   -7.6080    4.0480   -0.0399 Cl  0  0  0  0  0  0  0  0  0  0  0  0
   -6.6112    1.6329   -0.7582 C   0  0  0  0  0  0  0  0  0  0  0  0
   -5.6107    0.6713   -0.8987 C   0  0  0  0  0  0  0  0  0  0  0  0
   -4.3411    0.9850   -0.4681 C   0  0  0  0  0  0  0  0  0  0  0  0
   -0.8450    0.4710    0.1459 C   0  0  0  0  0  0  0  0  0  0  0  0
    0.0845    1.1203    0.6322 O   0  0  0  0  0  0  0  0  0  0  0  0
    1.7702   -1.2311   -0.3501 C   0  0  0  0  0  0  0  0  0  0  0  0
    2.8243   -1.6511    0.1493 O   0  0  0  0  0  0  0  0  0  0  0  0
    1.8276   -0.2885   -1.4057 N   0  0  0  0  0  0  0  0  0  0  0  0
    2.9667    0.3116   -2.0123 C   0  0  0  0  0  0  0  0  0  0  0  0
    3.8300    1.1914   -1.1882 C   0  0  0  0  0  0  0  0  0  0  0  0
    4.4820    0.6210   -0.0575 N   0  0  0  0  0  0  0  0  0  0  0  0
    5.2680    1.6147    0.6522 C   0  0  0  0  0  0  0  0  0  0  0  0
    6.4470    0.6493    0.5937 C   0  0  0  0  0  0  0  0  0  0  0  0
    5.6867    0.0544   -0.4102 O   0  0  0  0  0  0  0  0  0  0  0  0
    1.0535   -4.1171    2.3792 C   0  0  0  0  0  0  0  0  0  0  0  0
    0.0700   -4.7242    1.8717 O   0  0  0  0  0  0  0  0  0  0  0  0
    2.2874   -2.1906    3.8161 H   0  0  0  0  0  0  0  0  0  0  0  0
   -0.7625   -2.3478    1.7241 H   0  0  0  0  0  0  0  0  0  0  0  0
    0.1566   -0.8873    2.0614 H   0  0  0  0  0  0  0  0  0  0  0  0
    0.3061   -2.6905   -0.4058 H   0  0  0  0  0  0  0  0  0  0  0  0
   -1.3503   -2.3741   -1.6352 H   0  0  0  0  0  0  0  0  0  0  0  0
   -1.3842   -0.6517   -2.2763 H   0  0  0  0  0  0  0  0  0  0  0  0
   -3.6783   -1.4169   -1.7375 H   0  0  0  0  0  0  0  0  0  0  0  0
   -3.1292   -1.8175   -0.0858 H   0  0  0  0  0  0  0  0  0  0  0  0
   -2.1815    2.9995    0.8521 H   0  0  0  0  0  0  0  0  0  0  0  0
   -4.8048    4.1383    0.6718 H   0  0  0  0  0  0  0  0  0  0  0  0
   -7.6108    1.3954   -1.0934 H   0  0  0  0  0  0  0  0  0  0  0  0
   -5.8137   -0.2926   -1.3303 H   0  0  0  0  0  0  0  0  0  0  0  0
    0.8756    0.0064   -1.8241 H   0  0  0  0  0  0  0  0  0  0  0  0
    2.6314    0.9141   -2.8965 H   0  0  0  0  0  0  0  0  0  0  0  0
    3.6177   -0.4907   -2.4743 H   0  0  0  0  0  0  0  0  0  0  0  0
    4.6429    1.5773   -1.8772 H   0  0  0  0  0  0  0  0  0  0  0  0
    3.2756    2.1311   -0.9123 H   0  0  0  0  0  0  0  0  0  0  0  0
    5.4677    2.5321    0.0832 H   0  0  0  0  0  0  0  0  0  0  0  0
    4.9733    1.8158    1.6861 H   0  0  0  0  0  0  0  0  0  0  0  0
    7.3953    1.1067    0.2593 H   0  0  0  0  0  0  0  0  0  0  0  0
    6.5155    0.0061    1.4804 H   0  0  0  0  0  0  0  0  0  0  0  0
    1.7589   -4.7411    2.9168 H   0  0  0  0  0  0  0  0  0  0  0  0
  1  2  1  0
  2  3  1  0
  3  4  1  0
  4  5  1  0
  5  6  1  0
  6  7  1  0
  7  8  1  0
  8  9  1  0
  9 10  2  0
 10 11  1  0
 11 12  2  0
 12 13  1  0
 13 14  1  0
 13 15  2  0
 15 16  1  0
 16 17  2  0
  9 18  1  0
 18 19  2  0
  4 20  1  0
 20 21  2  0
 20 22  1  0
 22 23  1  0
 23 24  1  0
 24 25  1  0
 25 26  1  0
 26 27  1  0
 27 28  1  0
  2 29  1  0
 29 30  2  0
 18  5  1  0
 28 25  1  0
 17  8  1  0
 17 11  1  0
  1 31  1  0
  3 32  1  0
  3 33  1  0
  4 34  1  6
  6 35  1  0
  6 36  1  0
  7 37  1  0
  7 38  1  0
 10 39  1  0
 12 40  1  0
 15 41  1  0
 16 42  1  0
 22 43  1  0
 23 44  1  0
 23 45  1  0
 24 46  1  0
 24 47  1  0
 26 48  1  0
 26 49  1  0
 27 50  1  0
 27 51  1  0
 29 52  1  0
M  END
$$$$
[H]c1nc(C(C#N)(C([H])([H])[H])C([H])([H])[H])c([H])c(C(=O)N([H])c2c([H])nc(C([H])([H])[H])c(-c3nn(C([H])([H])[H])c(=O)c(N4C([H])([H])C([H])([H])OC([H])([H])C4([H])[H])c3[H])c2[H])c1[H]
     RDKit          3D

 62 65  0  0  0  0  0  0  0  0999 V2000
   -2.4983   -0.7684    2.9625 C   0  0  0  0  0  0  0  0  0  0  0  0
   -1.2240   -0.5800    2.1743 C   0  0  0  0  0  0  0  0  0  0  0  0
   -0.1012   -0.3989    2.8756 N   0  0  0  0  0  0  0  0  0  0  0  0
    1.0735   -0.3043    2.2764 C   0  0  0  0  0  0  0  0  0  0  0  0
    1.1177   -0.3979    0.8654 C   0  0  0  0  0  0  0  0  0  0  0  0
    2.4008   -0.3880    0.3457 N   0  0  0  0  0  0  0  0  0  0  0  0
    3.0535    0.3707   -0.6018 C   0  0  0  0  0  0  0  0  0  0  0  0
    2.5174    1.3029   -1.2136 O   0  0  0  0  0  0  0  0  0  0  0  0
    4.4798   -0.0050   -0.8450 C   0  0  0  0  0  0  0  0  0  0  0  0
    4.7223   -1.2896   -1.3044 C   0  0  0  0  0  0  0  0  0  0  0  0
    6.0379   -1.7365   -1.4382 C   0  0  0  0  0  0  0  0  0  0  0  0
    7.0206   -0.9054   -1.1190 N   0  0  0  0  0  0  0  0  0  0  0  0
    6.8453    0.3655   -0.6636 C   0  0  0  0  0  0  0  0  0  0  0  0
    5.5239    0.8000   -0.5333 C   0  0  0  0  0  0  0  0  0  0  0  0
    8.0055    1.1546   -0.3046 C   0  0  0  0  0  0  0  0  0  0  0  0
    9.2368    0.2103   -0.2895 C   0  0  0  0  0  0  0  0  0  0  0  0
    8.3930    2.2617   -1.2383 C   0  0  0  0  0  0  0  0  0  0  0  0
    7.9215    1.7371    1.0625 C   0  0  0  0  0  0  0  0  0  0  0  0
    7.8833    2.1859    2.1246 N   0  0  0  0  0  0  0  0  0  0  0  0
   -0.0343   -0.5816    0.1366 C   0  0  0  0  0  0  0  0  0  0  0  0
   -1.2548   -0.6804    0.7720 C   0  0  0  0  0  0  0  0  0  0  0  0
   -2.5478   -0.9810    0.1639 C   0  0  0  0  0  0  0  0  0  0  0  0
   -3.5852   -0.0445    0.0968 C   0  0  0  0  0  0  0  0  0  0  0  0
   -4.8443   -0.3310   -0.4179 C   0  0  0  0  0  0  0  0  0  0  0  0
   -5.8990    0.6547   -0.4282 N   0  0  0  0  0  0  0  0  0  0  0  0
   -5.5578    2.0246   -0.1274 C   0  0  0  0  0  0  0  0  0  0  0  0
   -6.7521    2.7927    0.3731 C   0  0  0  0  0  0  0  0  0  0  0  0
   -7.7772    2.5962   -0.5489 O   0  0  0  0  0  0  0  0  0  0  0  0
   -8.2860    1.3103   -0.4572 C   0  0  0  0  0  0  0  0  0  0  0  0
   -7.2408    0.2522   -0.7215 C   0  0  0  0  0  0  0  0  0  0  0  0
   -5.0400   -1.6054   -0.8747 C   0  0  0  0  0  0  0  0  0  0  0  0
   -6.1410   -1.9858   -1.3624 O   0  0  0  0  0  0  0  0  0  0  0  0
   -4.0115   -2.4981   -0.8022 N   0  0  0  0  0  0  0  0  0  0  0  0
   -4.2965   -3.8373   -1.2770 C   0  0  0  0  0  0  0  0  0  0  0  0
   -2.8244   -2.2130   -0.3134 N   0  0  0  0  0  0  0  0  0  0  0  0
   -2.8614   -1.8063    2.7630 H   0  0  0  0  0  0  0  0  0  0  0  0
   -3.2383   -0.0450    2.6347 H   0  0  0  0  0  0  0  0  0  0  0  0
   -2.3200   -0.5735    4.0431 H   0  0  0  0  0  0  0  0  0  0  0  0
    1.9573   -0.1631    2.8721 H   0  0  0  0  0  0  0  0  0  0  0  0
    3.0380   -1.1872    0.7971 H   0  0  0  0  0  0  0  0  0  0  0  0
    3.8880   -1.9512   -1.5639 H   0  0  0  0  0  0  0  0  0  0  0  0
    6.2410   -2.7359   -1.7872 H   0  0  0  0  0  0  0  0  0  0  0  0
    5.3579    1.7827   -0.1780 H   0  0  0  0  0  0  0  0  0  0  0  0
    9.4229   -0.0665   -1.3610 H   0  0  0  0  0  0  0  0  0  0  0  0
    8.9893   -0.6726    0.3205 H   0  0  0  0  0  0  0  0  0  0  0  0
   10.0587    0.7788    0.1489 H   0  0  0  0  0  0  0  0  0  0  0  0
    8.6961    1.8744   -2.2402 H   0  0  0  0  0  0  0  0  0  0  0  0
    9.3855    2.6737   -0.8368 H   0  0  0  0  0  0  0  0  0  0  0  0
    7.7415    3.1343   -1.2601 H   0  0  0  0  0  0  0  0  0  0  0  0
   -0.0176   -0.6565   -0.9516 H   0  0  0  0  0  0  0  0  0  0  0  0
   -3.3232    0.9256    0.4692 H   0  0  0  0  0  0  0  0  0  0  0  0
   -4.7315    2.1381    0.6114 H   0  0  0  0  0  0  0  0  0  0  0  0
   -5.2331    2.4565   -1.1212 H   0  0  0  0  0  0  0  0  0  0  0  0
   -6.4822    3.8713    0.3235 H   0  0  0  0  0  0  0  0  0  0  0  0
   -6.9839    2.4629    1.3860 H   0  0  0  0  0  0  0  0  0  0  0  0
   -9.1407    1.2446   -1.1924 H   0  0  0  0  0  0  0  0  0  0  0  0
   -8.7535    1.2080    0.5486 H   0  0  0  0  0  0  0  0  0  0  0  0
   -7.5061   -0.5912   -0.0481 H   0  0  0  0  0  0  0  0  0  0  0  0
   -7.4135   -0.0418   -1.7897 H   0  0  0  0  0  0  0  0  0  0  0  0
   -5.3394   -3.9292   -1.6689 H   0  0  0  0  0  0  0  0  0  0  0  0
   -3.6342   -4.0509   -2.1201 H   0  0  0  0  0  0  0  0  0  0  0  0
   -4.1141   -4.5672   -0.4787 H   0  0  0  0  0  0  0  0  0  0  0  0
  1  2  1  0
  2  3  2  0
  3  4  1  0
  4  5  2  0
  5  6  1  0
  6  7  1  0
  7  8  2  0
  7  9  1  0
  9 10  2  0
 10 11  1  0
 11 12  2  0
 12 13  1  0
 13 14  2  0
 13 15  1  0
 15 16  1  0
 15 17  1  0
 15 18  1  0
 18 19  3  0
  5 20  1  0
 20 21  2  0
 21 22  1  0
 22 23  1  0
 23 24  2  0
 24 25  1  0
 25 26  1  0
 26 27  1  0
 27 28  1  0
 28 29  1  0
 29 30  1  0
 24 31  1  0
 31 32  2  0
 31 33  1  0
 33 34  1  0
 33 35  1  0
 21  2  1  0
 35 22  2  0
 14  9  1  0
 30 25  1  0
  1 36  1  0
  1 37  1  0
  1 38  1  0
  4 39  1  0
  6 40  1  0
 10 41  1  0
 11 42  1  0
 14 43  1  0
 16 44  1  0
 16 45  1  0
 16 46  1  0
 17 47  1  0
 17 48  1  0
 17 49  1  0
 20 50  1  0
 23 51  1  0
 26 52  1  0
 26 53  1  0
 27 54  1  0
 27 55  1  0
 29 56  1  0
 29 57  1  0
 30 58  1  0
 30 59  1  0
 34 60  1  0
 34 61  1  0
 34 62  1  0
M  END
$$$$
[H]/C(=C1/C(=O)N(C([H])([H])[H])c2c([H])nc(N([H])c3c([H])c([H])c(N4C([H])([H])C([H])([H])N(C([H])([H])c5c([H])c([H])c([H])c([H])c5[H])C([H])([H])C4([H])[H])c([H])c3OC([H])([H])[H])nc21)c1c([H])nc([H])c([H])c1[H]
     RDKit          3D

 71 76  0  0  0  0  0  0  0  0999 V2000
    0.1681    2.8913    2.4143 C   0  0  0  0  0  0  0  0  0  0  0  0
   -0.4936    1.8857    1.6862 O   0  0  0  0  0  0  0  0  0  0  0  0
    0.1812    0.9453    0.9216 C   0  0  0  0  0  0  0  0  0  0  0  0
    1.5638    0.9881    0.8662 C   0  0  0  0  0  0  0  0  0  0  0  0
    2.2422    0.0533    0.1072 C   0  0  0  0  0  0  0  0  0  0  0  0
    1.5364   -0.8932   -0.5736 C   0  0  0  0  0  0  0  0  0  0  0  0
    0.1339   -0.9245   -0.5074 C   0  0  0  0  0  0  0  0  0  0  0  0
   -0.5656   -0.0146    0.2339 C   0  0  0  0  0  0  0  0  0  0  0  0
   -1.9351   -0.0108    0.3652 N   0  0  0  0  0  0  0  0  0  0  0  0
   -2.9422   -0.7573   -0.2762 C   0  0  0  0  0  0  0  0  0  0  0  0
   -2.6743   -1.6506   -1.2172 N   0  0  0  0  0  0  0  0  0  0  0  0
   -3.6205   -2.3901   -1.8524 C   0  0  0  0  0  0  0  0  0  0  0  0
   -4.9565   -2.2115   -1.5056 C   0  0  0  0  0  0  0  0  0  0  0  0
   -6.1501   -2.8188   -1.9798 N   0  0  0  0  0  0  0  0  0  0  0  0
   -6.2998   -3.8369   -2.9994 C   0  0  0  0  0  0  0  0  0  0  0  0
   -7.2723   -2.2503   -1.2635 C   0  0  0  0  0  0  0  0  0  0  0  0
   -8.4794   -2.5535   -1.4229 O   0  0  0  0  0  0  0  0  0  0  0  0
   -6.7234   -1.2910   -0.3528 C   0  0  0  0  0  0  0  0  0  0  0  0
   -7.3767   -0.5141    0.4918 C   0  0  0  0  0  0  0  0  0  0  0  0
   -8.8166   -0.4684    0.6646 C   0  0  0  0  0  0  0  0  0  0  0  0
   -9.3076   -0.7364    1.9489 C   0  0  0  0  0  0  0  0  0  0  0  0
  -10.6669   -0.6522    2.1874 C   0  0  0  0  0  0  0  0  0  0  0  0
  -11.5683   -0.3119    1.2004 C   0  0  0  0  0  0  0  0  0  0  0  0
  -11.0768   -0.0573   -0.0310 N   0  0  0  0  0  0  0  0  0  0  0  0
   -9.7408   -0.1342   -0.2845 C   0  0  0  0  0  0  0  0  0  0  0  0
   -5.2497   -1.2883   -0.5295 C   0  0  0  0  0  0  0  0  0  0  0  0
   -4.2527   -0.6051    0.0417 N   0  0  0  0  0  0  0  0  0  0  0  0
    3.6665    0.1736    0.1026 N   0  0  0  0  0  0  0  0  0  0  0  0
    4.3494    1.4414    0.2791 C   0  0  0  0  0  0  0  0  0  0  0  0
    5.3452    1.5969   -0.8567 C   0  0  0  0  0  0  0  0  0  0  0  0
    6.1569    0.4753   -1.0566 N   0  0  0  0  0  0  0  0  0  0  0  0
    7.5327    0.6298   -1.3064 C   0  0  0  0  0  0  0  0  0  0  0  0
    8.3021    1.3175   -0.2615 C   0  0  0  0  0  0  0  0  0  0  0  0
    8.7403    2.6048   -0.4367 C   0  0  0  0  0  0  0  0  0  0  0  0
    9.4671    3.2745    0.5411 C   0  0  0  0  0  0  0  0  0  0  0  0
    9.7383    2.6025    1.7035 C   0  0  0  0  0  0  0  0  0  0  0  0
    9.3028    1.3196    1.8812 C   0  0  0  0  0  0  0  0  0  0  0  0
    8.5870    0.6710    0.9093 C   0  0  0  0  0  0  0  0  0  0  0  0
    5.5918   -0.8049   -1.0203 C   0  0  0  0  0  0  0  0  0  0  0  0
    4.4778   -1.0118   -0.0533 C   0  0  0  0  0  0  0  0  0  0  0  0
    0.8422    2.3788    3.1481 H   0  0  0  0  0  0  0  0  0  0  0  0
    0.6990    3.6342    1.7993 H   0  0  0  0  0  0  0  0  0  0  0  0
   -0.6008    3.4128    3.0599 H   0  0  0  0  0  0  0  0  0  0  0  0
    2.1161    1.7504    1.4173 H   0  0  0  0  0  0  0  0  0  0  0  0
    2.0595   -1.6205   -1.1754 H   0  0  0  0  0  0  0  0  0  0  0  0
   -0.3176   -1.7032   -1.0679 H   0  0  0  0  0  0  0  0  0  0  0  0
   -2.3596    0.6869    1.1006 H   0  0  0  0  0  0  0  0  0  0  0  0
   -3.3237   -3.1025   -2.6127 H   0  0  0  0  0  0  0  0  0  0  0  0
   -5.5205   -3.6339   -3.7872 H   0  0  0  0  0  0  0  0  0  0  0  0
   -6.2303   -4.8515   -2.5804 H   0  0  0  0  0  0  0  0  0  0  0  0
   -7.2833   -3.7155   -3.5433 H   0  0  0  0  0  0  0  0  0  0  0  0
   -6.7248    0.1500    1.1074 H   0  0  0  0  0  0  0  0  0  0  0  0
   -8.6242   -1.0049    2.7288 H   0  0  0  0  0  0  0  0  0  0  0  0
  -11.0667   -0.8551    3.1706 H   0  0  0  0  0  0  0  0  0  0  0  0
  -12.6451   -0.2523    1.4137 H   0  0  0  0  0  0  0  0  0  0  0  0
   -9.4167    0.0949   -1.2801 H   0  0  0  0  0  0  0  0  0  0  0  0
    4.7878    1.4940    1.2792 H   0  0  0  0  0  0  0  0  0  0  0  0
    3.6493    2.2999    0.1853 H   0  0  0  0  0  0  0  0  0  0  0  0
    5.9548    2.4947   -0.6260 H   0  0  0  0  0  0  0  0  0  0  0  0
    4.7649    1.8145   -1.7763 H   0  0  0  0  0  0  0  0  0  0  0  0
    7.9476   -0.3987   -1.5199 H   0  0  0  0  0  0  0  0  0  0  0  0
    7.6478    1.1665   -2.2953 H   0  0  0  0  0  0  0  0  0  0  0  0
    8.5131    3.1328   -1.3786 H   0  0  0  0  0  0  0  0  0  0  0  0
    9.7699    4.2772    0.3148 H   0  0  0  0  0  0  0  0  0  0  0  0
   10.2993    3.1066    2.4706 H   0  0  0  0  0  0  0  0  0  0  0  0
    9.5364    0.8051    2.8294 H   0  0  0  0  0  0  0  0  0  0  0  0
    8.2423   -0.3578    1.0675 H   0  0  0  0  0  0  0  0  0  0  0  0
    6.4144   -1.5355   -0.7444 H   0  0  0  0  0  0  0  0  0  0  0  0
    5.2681   -1.1369   -2.0277 H   0  0  0  0  0  0  0  0  0  0  0  0
    4.8272   -1.3229    0.9595 H   0  0  0  0  0  0  0  0  0  0  0  0
    3.8591   -1.8911   -0.3958 H   0  0  0  0  0  0  0  0  0  0  0  0
  1  2  1  0
  2  3  1  0
  3  4  2  0
  4  5  1  0
  5  6  2  0
  6  7  1  0
  7  8  2  0
  8  9  1  0
  9 10  1  0
 10 11  2  0
 11 12  1  0
 12 13  2  0
 13 14  1  0
 14 15  1  0
 14 16  1  0
 16 17  2  0
 16 18  1  0
 18 19  2  0
 19 20  1  0
 20 21  2  0
 21 22  1  0
 22 23  2  0
 23 24  1  0
 24 25  2  0
 18 26  1  0
 26 27  2  0
  5 28  1  0
 28 29  1  0
 29 30  1  0
 30 31  1  0
 31 32  1  0
 32 33  1  0
 33 34  2  0
 34 35  1  0
 35 36  2  0
 36 37  1  0
 37 38  2  0
 31 39  1  0
 39 40  1  0
  8  3  1  0
 27 10  1  0
 40 28  1  0
 26 13  1  0
 38 33  1  0
 25 20  1  0
  1 41  1  0
  1 42  1  0
  1 43  1  0
  4 44  1  0
  6 45  1  0
  7 46  1  0
  9 47  1  0
 12 48  1  0
 15 49  1  0
 15 50  1  0
 15 51  1  0
 19 52  1  0
 21 53  1  0
 22 54  1  0
 23 55  1  0
 25 56  1  0
 29 57  1  0
 29 58  1  0
 30 59  1  0
 30 60  1  0
 32 61  1  0
 32 62  1  0
 34 63  1  0
 35 64  1  0
 36 65  1  0
 37 66  1  0
 38 67  1  0
 39 68  1  0
 39 69  1  0
 40 70  1  0
 40 71  1  0
M  END
$$$$
[H]c1nc([H])c(-c2c([H])c([H])c3sc([H])c([H])c3c2[H])c([H])c1-c1c([H])c([H])c([H])c(S(=O)(=O)N([H])[H])c1[H]
     RDKit          3D

 39 42  0  0  0  0  0  0  0  0999 V2000
    6.7257    0.7618    0.8710 N   0  0  0  0  0  0  0  0  0  0  0  0
    5.5542    1.9102    0.3264 S   0  0  0  0  0  0  0  0  0  0  0  0
    5.1511    2.7336    1.5380 O   0  0  0  0  0  0  0  0  0  0  0  0
    6.1789    2.7974   -0.7173 O   0  0  0  0  0  0  0  0  0  0  0  0
    4.1725    1.0598   -0.2899 C   0  0  0  0  0  0  0  0  0  0  0  0
    4.0804    0.7020   -1.6161 C   0  0  0  0  0  0  0  0  0  0  0  0
    2.9933    0.0278   -2.1209 C   0  0  0  0  0  0  0  0  0  0  0  0
    1.9520   -0.3098   -1.2875 C   0  0  0  0  0  0  0  0  0  0  0  0
    2.0080    0.0289    0.0368 C   0  0  0  0  0  0  0  0  0  0  0  0
    3.0970    0.7005    0.5257 C   0  0  0  0  0  0  0  0  0  0  0  0
    0.8892   -0.3405    0.8926 C   0  0  0  0  0  0  0  0  0  0  0  0
    1.0203   -0.6446    2.2305 C   0  0  0  0  0  0  0  0  0  0  0  0
   -0.0115   -0.9826    3.0198 N   0  0  0  0  0  0  0  0  0  0  0  0
   -1.2631   -1.0299    2.4744 C   0  0  0  0  0  0  0  0  0  0  0  0
   -1.4732   -0.7399    1.1489 C   0  0  0  0  0  0  0  0  0  0  0  0
   -0.4045   -0.3982    0.3661 C   0  0  0  0  0  0  0  0  0  0  0  0
   -2.8576   -0.8103    0.6236 C   0  0  0  0  0  0  0  0  0  0  0  0
   -3.7460   -1.7190    1.1508 C   0  0  0  0  0  0  0  0  0  0  0  0
   -5.0150   -1.7449    0.6315 C   0  0  0  0  0  0  0  0  0  0  0  0
   -5.4006   -0.8741   -0.4053 C   0  0  0  0  0  0  0  0  0  0  0  0
   -6.8321   -0.6028   -1.2930 S   0  0  0  0  0  0  0  0  0  0  0  0
   -6.2926    0.6490   -2.3136 C   0  0  0  0  0  0  0  0  0  0  0  0
   -4.9927    0.8238   -1.9291 C   0  0  0  0  0  0  0  0  0  0  0  0
   -4.5292    0.0327   -0.9377 C   0  0  0  0  0  0  0  0  0  0  0  0
   -3.2336    0.0366   -0.3850 C   0  0  0  0  0  0  0  0  0  0  0  0
    7.3711    0.5002    0.0980 H   0  0  0  0  0  0  0  0  0  0  0  0
    6.2481   -0.1048    1.1857 H   0  0  0  0  0  0  0  0  0  0  0  0
    4.9170    0.9748   -2.2787 H   0  0  0  0  0  0  0  0  0  0  0  0
    2.9682   -0.2346   -3.1870 H   0  0  0  0  0  0  0  0  0  0  0  0
    1.0727   -0.8554   -1.6918 H   0  0  0  0  0  0  0  0  0  0  0  0
    3.1699    0.9844    1.5772 H   0  0  0  0  0  0  0  0  0  0  0  0
    2.0174   -0.6052    2.6571 H   0  0  0  0  0  0  0  0  0  0  0  0
   -2.0573   -1.3063    3.1495 H   0  0  0  0  0  0  0  0  0  0  0  0
   -0.5473   -0.1654   -0.6795 H   0  0  0  0  0  0  0  0  0  0  0  0
   -3.4662   -2.3762    1.9279 H   0  0  0  0  0  0  0  0  0  0  0  0
   -5.7798   -2.4191    0.9775 H   0  0  0  0  0  0  0  0  0  0  0  0
   -6.8339    1.2061   -3.1046 H   0  0  0  0  0  0  0  0  0  0  0  0
   -4.3847    1.6048   -2.4492 H   0  0  0  0  0  0  0  0  0  0  0  0
   -2.4660    0.7293   -0.7484 H   0  0  0  0  0  0  0  0  0  0  0  0
  1  2  1  0
  2  3  2  0
  2  4  2  0
  2  5  1  0
  5  6  2  0
  6  7  1  0
  7  8  2  0
  8  9  1  0
  9 10  2  0
  9 11  1  0
 11 12  2  0
 12 13  1  0
 13 14  2  0
 14 15  1  0
 15 16  2  0
 15 17  1  0
 17 18  2  0
 18 19  1  0
 19 20  2  0
 20 21  1  0
 21 22  1  0
 22 23  2  0
 23 24  1  0
 24 25  2  0
 10  5  1  0
 16 11  1  0
 25 17  1  0
 24 20  1  0
  1 26  1  0
  1 27  1  0
  6 28  1  0
  7 29  1  0
  8 30  1  0
 10 31  1  0
 12 32  1  0
 14 33  1  0
 16 34  1  0
 18 35  1  0
 19 36  1  0
 22 37  1  0
 23 38  1  0
 25 39  1  0
M  END
$$$$
[H]c1nc(C([H])([H])C([H])([H])c2c([H])c([H])c([H])c(OC([H])([H])[H])c2[H])nc(C2(N([H])C(=O)c3c([H])c([H])c(-c4c([H])c([H])c(OC(F)(F)F)c([H])c4[H])c([H])c3[H])C([H])([H])C([H])([H])C2([H])[H])c1[H]
     RDKit          3D

 68 72  0  0  0  0  0  0  0  0999 V2000
    6.9221    3.6542    2.2217 C   0  0  0  0  0  0  0  0  0  0  0  0
    7.7559    3.2082    1.1647 O   0  0  0  0  0  0  0  0  0  0  0  0
    7.8159    1.8931    0.7358 C   0  0  0  0  0  0  0  0  0  0  0  0
    8.6618    1.5794   -0.2988 C   0  0  0  0  0  0  0  0  0  0  0  0
    8.7394    0.2647   -0.7494 C   0  0  0  0  0  0  0  0  0  0  0  0
    7.9578   -0.6874   -0.1376 C   0  0  0  0  0  0  0  0  0  0  0  0
    7.0856   -0.3840    0.9231 C   0  0  0  0  0  0  0  0  0  0  0  0
    6.3411   -1.4815    1.5433 C   0  0  0  0  0  0  0  0  0  0  0  0
    5.1917   -1.9480    0.7652 C   0  0  0  0  0  0  0  0  0  0  0  0
    4.0736   -1.0419    0.4824 C   0  0  0  0  0  0  0  0  0  0  0  0
    3.9905    0.2085    0.9310 N   0  0  0  0  0  0  0  0  0  0  0  0
    2.9720    1.0426    0.6812 C   0  0  0  0  0  0  0  0  0  0  0  0
    1.9184    0.5820   -0.1020 C   0  0  0  0  0  0  0  0  0  0  0  0
    1.9712   -0.7059   -0.5831 C   0  0  0  0  0  0  0  0  0  0  0  0
    3.0253   -1.4622   -0.2825 N   0  0  0  0  0  0  0  0  0  0  0  0
    0.8387   -1.2284   -1.4340 C   0  0  0  0  0  0  0  0  0  0  0  0
    1.0678   -2.7117   -1.6699 C   0  0  0  0  0  0  0  0  0  0  0  0
    1.4981   -2.3908   -3.0909 C   0  0  0  0  0  0  0  0  0  0  0  0
    1.1430   -0.9422   -2.8649 C   0  0  0  0  0  0  0  0  0  0  0  0
   -0.4539   -0.8796   -0.9255 N   0  0  0  0  0  0  0  0  0  0  0  0
   -1.6198   -1.2384   -1.6239 C   0  0  0  0  0  0  0  0  0  0  0  0
   -1.5365   -1.8762   -2.6984 O   0  0  0  0  0  0  0  0  0  0  0  0
   -2.9710   -0.9089   -1.1710 C   0  0  0  0  0  0  0  0  0  0  0  0
   -3.1580    0.1292   -0.2894 C   0  0  0  0  0  0  0  0  0  0  0  0
   -4.4282    0.4650    0.1532 C   0  0  0  0  0  0  0  0  0  0  0  0
   -5.5374   -0.2301   -0.2735 C   0  0  0  0  0  0  0  0  0  0  0  0
   -5.3371   -1.2702   -1.1576 C   0  0  0  0  0  0  0  0  0  0  0  0
   -4.0757   -1.6085   -1.6013 C   0  0  0  0  0  0  0  0  0  0  0  0
   -6.8817    0.1114    0.1619 C   0  0  0  0  0  0  0  0  0  0  0  0
   -7.0862    0.6441    1.4146 C   0  0  0  0  0  0  0  0  0  0  0  0
   -8.3575    0.9765    1.8414 C   0  0  0  0  0  0  0  0  0  0  0  0
   -9.4645    0.7844    1.0262 C   0  0  0  0  0  0  0  0  0  0  0  0
  -10.7329    1.1279    1.4789 O   0  0  0  0  0  0  0  0  0  0  0  0
  -11.2621    2.4462    1.2550 C   0  0  0  0  0  0  0  0  0  0  0  0
  -10.4551    3.4146    1.8477 F   0  0  0  0  0  0  0  0  0  0  0  0
  -11.3158    2.7385   -0.0854 F   0  0  0  0  0  0  0  0  0  0  0  0
  -12.5128    2.4711    1.8270 F   0  0  0  0  0  0  0  0  0  0  0  0
   -9.2540    0.2501   -0.2291 C   0  0  0  0  0  0  0  0  0  0  0  0
   -7.9867   -0.0818   -0.6584 C   0  0  0  0  0  0  0  0  0  0  0  0
    7.0301    0.9100    1.3447 C   0  0  0  0  0  0  0  0  0  0  0  0
    7.0410    4.7592    2.2924 H   0  0  0  0  0  0  0  0  0  0  0  0
    5.8743    3.3517    1.9840 H   0  0  0  0  0  0  0  0  0  0  0  0
    7.2767    3.2029    3.1745 H   0  0  0  0  0  0  0  0  0  0  0  0
    9.2804    2.3379   -0.7792 H   0  0  0  0  0  0  0  0  0  0  0  0
    9.4020   -0.0141   -1.5751 H   0  0  0  0  0  0  0  0  0  0  0  0
    8.0407   -1.6947   -0.5104 H   0  0  0  0  0  0  0  0  0  0  0  0
    6.0311   -1.1905    2.5978 H   0  0  0  0  0  0  0  0  0  0  0  0
    7.0805   -2.3437    1.6371 H   0  0  0  0  0  0  0  0  0  0  0  0
    4.7303   -2.8998    1.2085 H   0  0  0  0  0  0  0  0  0  0  0  0
    5.5047   -2.3436   -0.2673 H   0  0  0  0  0  0  0  0  0  0  0  0
    2.9785    2.0616    1.0882 H   0  0  0  0  0  0  0  0  0  0  0  0
    1.1079    1.2692   -0.2897 H   0  0  0  0  0  0  0  0  0  0  0  0
    0.1715   -3.3473   -1.5959 H   0  0  0  0  0  0  0  0  0  0  0  0
    1.9063   -3.1596   -1.1012 H   0  0  0  0  0  0  0  0  0  0  0  0
    0.9034   -2.8938   -3.8771 H   0  0  0  0  0  0  0  0  0  0  0  0
    2.5783   -2.5340   -3.2987 H   0  0  0  0  0  0  0  0  0  0  0  0
    2.0383   -0.2737   -3.0369 H   0  0  0  0  0  0  0  0  0  0  0  0
    0.3264   -0.5286   -3.4771 H   0  0  0  0  0  0  0  0  0  0  0  0
   -0.5646   -0.3461   -0.0170 H   0  0  0  0  0  0  0  0  0  0  0  0
   -2.3138    0.6949    0.0646 H   0  0  0  0  0  0  0  0  0  0  0  0
   -4.5447    1.2904    0.8460 H   0  0  0  0  0  0  0  0  0  0  0  0
   -6.2111   -1.8131   -1.4915 H   0  0  0  0  0  0  0  0  0  0  0  0
   -3.9666   -2.4349   -2.2955 H   0  0  0  0  0  0  0  0  0  0  0  0
   -6.2160    0.8028    2.0680 H   0  0  0  0  0  0  0  0  0  0  0  0
   -8.4785    1.4032    2.8469 H   0  0  0  0  0  0  0  0  0  0  0  0
  -10.1112    0.0944   -0.8740 H   0  0  0  0  0  0  0  0  0  0  0  0
   -7.8435   -0.4961   -1.6348 H   0  0  0  0  0  0  0  0  0  0  0  0
    6.4047    1.2215    2.1727 H   0  0  0  0  0  0  0  0  0  0  0  0
  1  2  1  0
  2  3  1  0
  3  4  2  0
  4  5  1  0
  5  6  2  0
  6  7  1  0
  7  8  1  0
  8  9  1  0
  9 10  1  0
 10 11  2  0
 11 12  1  0
 12 13  2  0
 13 14  1  0
 14 15  2  0
 14 16  1  0
 16 17  1  0
 17 18  1  0
 18 19  1  0
 16 20  1  0
 20 21  1  0
 21 22  2  0
 21 23  1  0
 23 24  2  0
 24 25  1  0
 25 26  2  0
 26 27  1  0
 27 28  2  0
 26 29  1  0
 29 30  2  0
 30 31  1  0
 31 32  2  0
 32 33  1  0
 33 34  1  0
 34 35  1  0
 34 36  1  0
 34 37  1  0
 32 38  1  0
 38 39  2  0
  7 40  2  0
 40  3  1  0
 15 10  1  0
 19 16  1  0
 28 23  1  0
 39 29  1  0
  1 41  1  0
  1 42  1  0
  1 43  1  0
  4 44  1  0
  5 45  1  0
  6 46  1  0
  8 47  1  0
  8 48  1  0
  9 49  1  0
  9 50  1  0
 12 51  1  0
 13 52  1  0
 17 53  1  0
 17 54  1  0
 18 55  1  0
 18 56  1  0
 19 57  1  0
 19 58  1  0
 20 59  1  0
 24 60  1  0
 25 61  1  0
 27 62  1  0
 28 63  1  0
 30 64  1  0
 31 65  1  0
 38 66  1  0
 39 67  1  0
 40 68  1  0
M  END
$$$$
[H]OC(=O)[C@@]1([H])N([C@]2([H])C([H])([H])C([H])([H])[C@@]([H])(c3c([H])c([H])c([H])c([H])c3C([H])([H])O[H])C([H])([H])C2([H])[H])C([H])([H])C([H])([H])C1([H])[H]
     RDKit          3D

 47 49  0  0  0  0  0  0  0  0999 V2000
   -4.5900    2.0876    1.4037 O   0  0  0  0  0  0  0  0  0  0  0  0
   -3.9400    0.8536    1.7119 C   0  0  0  0  0  0  0  0  0  0  0  0
   -3.9714    0.0255    0.5381 C   0  0  0  0  0  0  0  0  0  0  0  0
   -5.1632   -0.3568   -0.0936 C   0  0  0  0  0  0  0  0  0  0  0  0
   -5.0709   -1.1246   -1.2140 C   0  0  0  0  0  0  0  0  0  0  0  0
   -3.9290   -1.5252   -1.7919 C   0  0  0  0  0  0  0  0  0  0  0  0
   -2.7471   -1.1127   -1.1343 C   0  0  0  0  0  0  0  0  0  0  0  0
   -2.7370   -0.3847    0.0020 C   0  0  0  0  0  0  0  0  0  0  0  0
   -1.5107   -0.2839    0.8365 C   0  0  1  0  0  0  0  0  0  0  0  0
   -0.6039   -1.4505    0.4565 C   0  0  0  0  0  0  0  0  0  0  0  0
    0.8374   -1.1438    0.4229 C   0  0  0  0  0  0  0  0  0  0  0  0
    1.1915    0.1038   -0.3196 C   0  0  1  0  0  0  0  0  0  0  0  0
    0.1988    1.2137   -0.2208 C   0  0  0  0  0  0  0  0  0  0  0  0
   -0.7975    1.0004    0.8874 C   0  0  0  0  0  0  0  0  0  0  0  0
    2.4781    0.5366    0.2082 N   0  0  0  0  0  0  0  0  0  0  0  0
    3.0690    1.5665   -0.6224 C   0  0  0  0  0  0  0  0  0  0  0  0
    4.1046    0.9136   -1.4969 C   0  0  0  0  0  0  0  0  0  0  0  0
    3.8825   -0.5619   -1.2316 C   0  0  0  0  0  0  0  0  0  0  0  0
    3.4579   -0.5176    0.2012 C   0  0  1  0  0  0  0  0  0  0  0  0
    4.5881   -0.1797    1.0633 C   0  0  0  0  0  0  0  0  0  0  0  0
    5.7775   -0.8983    0.7775 O   0  0  0  0  0  0  0  0  0  0  0  0
    4.6140    0.6090    1.9869 O   0  0  0  0  0  0  0  0  0  0  0  0
   -5.3567    2.0475    0.8508 H   0  0  0  0  0  0  0  0  0  0  0  0
   -3.1103    0.9347    2.3406 H   0  0  0  0  0  0  0  0  0  0  0  0
   -4.7879    0.3769    2.3946 H   0  0  0  0  0  0  0  0  0  0  0  0
   -6.1214   -0.0792    0.3122 H   0  0  0  0  0  0  0  0  0  0  0  0
   -6.0292   -1.5171   -1.6874 H   0  0  0  0  0  0  0  0  0  0  0  0
   -3.7942   -2.1018   -2.6772 H   0  0  0  0  0  0  0  0  0  0  0  0
   -1.7865   -1.2465   -1.6676 H   0  0  0  0  0  0  0  0  0  0  0  0
   -1.8204   -0.5207    1.9160 H   0  0  0  0  0  0  0  0  0  0  0  0
   -0.8791   -1.9527   -0.4797 H   0  0  0  0  0  0  0  0  0  0  0  0
   -0.7312   -2.2984    1.2253 H   0  0  0  0  0  0  0  0  0  0  0  0
    1.2435   -1.1438    1.4364 H   0  0  0  0  0  0  0  0  0  0  0  0
    1.3021   -2.0046   -0.1632 H   0  0  0  0  0  0  0  0  0  0  0  0
    1.2980   -0.1433   -1.4121 H   0  0  0  0  0  0  0  0  0  0  0  0
   -0.3515    1.3857   -1.1822 H   0  0  0  0  0  0  0  0  0  0  0  0
    0.7215    2.1763    0.0035 H   0  0  0  0  0  0  0  0  0  0  0  0
   -1.4416    1.8797    0.9676 H   0  0  0  0  0  0  0  0  0  0  0  0
   -0.1673    1.0188    1.8417 H   0  0  0  0  0  0  0  0  0  0  0  0
    3.5131    2.3135    0.0665 H   0  0  0  0  0  0  0  0  0  0  0  0
    2.3276    2.0636   -1.2683 H   0  0  0  0  0  0  0  0  0  0  0  0
    4.0177    1.1757   -2.5500 H   0  0  0  0  0  0  0  0  0  0  0  0
    5.1371    1.1322   -1.0984 H   0  0  0  0  0  0  0  0  0  0  0  0
    4.8317   -1.1356   -1.2650 H   0  0  0  0  0  0  0  0  0  0  0  0
    3.1069   -0.9901   -1.9031 H   0  0  0  0  0  0  0  0  0  0  0  0
    3.0591   -1.4847    0.5733 H   0  0  0  0  0  0  0  0  0  0  0  0
    6.6804   -0.5312    1.0547 H   0  0  0  0  0  0  0  0  0  0  0  0
  1  2  1  0
  2  3  1  0
  3  4  2  0
  4  5  1  0
  5  6  2  0
  6  7  1  0
  7  8  2  0
  8  9  1  0
  9 10  1  0
 10 11  1  0
 11 12  1  0
 12 13  1  0
 13 14  1  0
 12 15  1  0
 15 16  1  0
 16 17  1  0
 17 18  1  0
 18 19  1  0
 19 20  1  0
 20 21  1  0
 20 22  2  0
  8  3  1  0
 14  9  1  0
 19 15  1  0
  1 23  1  0
  2 24  1  0
  2 25  1  0
  4 26  1  0
  5 27  1  0
  6 28  1  0
  7 29  1  0
  9 30  1  1
 10 31  1  0
 10 32  1  0
 11 33  1  0
 11 34  1  0
 12 35  1  6
 13 36  1  0
 13 37  1  0
 14 38  1  0
 14 39  1  0
 16 40  1  0
 16 41  1  0
 17 42  1  0
 17 43  1  0
 18 44  1  0
 18 45  1  0
 19 46  1  1
 21 47  1  0
M  END
$$$$
[H]c1nc(-c2nc(N3C([H])([H])C4([H])N([H])C([H])([H])C3([H])C([H])([H])C4([H])[H])c([H])c(C([H])([H])C([H])([H])c3c([H])c([H])c(C([H])([H])[H])c([H])c3[H])n2)c([H])c([H])c1[H]
     RDKit          3D

 56 60  0  0  0  0  0  0  0  0999 V2000
    7.9903    1.6293   -0.5636 C   0  0  0  0  0  0  0  0  0  0  0  0
    6.5128    1.4606   -0.4712 C   0  0  0  0  0  0  0  0  0  0  0  0
    5.8338    1.5365    0.7262 C   0  0  0  0  0  0  0  0  0  0  0  0
    4.4571    1.3794    0.8159 C   0  0  0  0  0  0  0  0  0  0  0  0
    3.7348    1.1392   -0.3240 C   0  0  0  0  0  0  0  0  0  0  0  0
    2.2697    0.9707   -0.2331 C   0  0  0  0  0  0  0  0  0  0  0  0
    1.9751   -0.4741   -0.0194 C   0  0  0  0  0  0  0  0  0  0  0  0
    0.5262   -0.7667    0.0880 C   0  0  0  0  0  0  0  0  0  0  0  0
   -0.4603    0.1904    0.0013 C   0  0  0  0  0  0  0  0  0  0  0  0
   -1.7873   -0.1268    0.1061 C   0  0  0  0  0  0  0  0  0  0  0  0
   -2.0966   -1.4407    0.3016 N   0  0  0  0  0  0  0  0  0  0  0  0
   -1.1550   -2.3952    0.3900 C   0  0  0  0  0  0  0  0  0  0  0  0
    0.1363   -2.0334    0.2807 N   0  0  0  0  0  0  0  0  0  0  0  0
   -1.5558   -3.7826    0.5995 C   0  0  0  0  0  0  0  0  0  0  0  0
   -0.5569   -4.7431    0.6860 C   0  0  0  0  0  0  0  0  0  0  0  0
   -0.8230   -6.0822    0.8825 C   0  0  0  0  0  0  0  0  0  0  0  0
   -2.1446   -6.4602    0.9952 C   0  0  0  0  0  0  0  0  0  0  0  0
   -3.1171   -5.4727    0.9038 C   0  0  0  0  0  0  0  0  0  0  0  0
   -2.8164   -4.1759    0.7115 N   0  0  0  0  0  0  0  0  0  0  0  0
   -2.8466    0.8247    0.0230 N   0  0  0  0  0  0  0  0  0  0  0  0
   -4.2441    0.3910    0.1667 C   0  0  0  0  0  0  0  0  0  0  0  0
   -5.0370    1.6624    0.4151 C   0  0  0  0  0  0  0  0  0  0  0  0
   -4.3943    2.4971    1.5212 C   0  0  0  0  0  0  0  0  0  0  0  0
   -2.9954    2.9288    1.1188 C   0  0  0  0  0  0  0  0  0  0  0  0
   -2.6545    2.2345   -0.1994 C   0  0  0  0  0  0  0  0  0  0  0  0
   -3.7041    2.7334   -1.2019 C   0  0  0  0  0  0  0  0  0  0  0  0
   -5.0405    2.4781   -0.7719 N   0  0  0  0  0  0  0  0  0  0  0  0
    4.3886    1.0597   -1.5262 C   0  0  0  0  0  0  0  0  0  0  0  0
    5.7612    1.2174   -1.6070 C   0  0  0  0  0  0  0  0  0  0  0  0
    8.3051    2.0154   -1.5477 H   0  0  0  0  0  0  0  0  0  0  0  0
    8.3052    2.3626    0.2001 H   0  0  0  0  0  0  0  0  0  0  0  0
    8.5163    0.6787   -0.3119 H   0  0  0  0  0  0  0  0  0  0  0  0
    6.3788    1.7256    1.6453 H   0  0  0  0  0  0  0  0  0  0  0  0
    3.9887    1.4532    1.8031 H   0  0  0  0  0  0  0  0  0  0  0  0
    1.8426    1.5732    0.5921 H   0  0  0  0  0  0  0  0  0  0  0  0
    1.8494    1.2788   -1.2262 H   0  0  0  0  0  0  0  0  0  0  0  0
    2.3332   -1.0448   -0.9255 H   0  0  0  0  0  0  0  0  0  0  0  0
    2.4898   -0.8783    0.8705 H   0  0  0  0  0  0  0  0  0  0  0  0
   -0.1885    1.2214   -0.1530 H   0  0  0  0  0  0  0  0  0  0  0  0
    0.4764   -4.4306    0.5956 H   0  0  0  0  0  0  0  0  0  0  0  0
   -0.0133   -6.8250    0.9477 H   0  0  0  0  0  0  0  0  0  0  0  0
   -2.3861   -7.5037    1.1500 H   0  0  0  0  0  0  0  0  0  0  0  0
   -4.1415   -5.8134    0.9977 H   0  0  0  0  0  0  0  0  0  0  0  0
   -4.3136   -0.2619    1.0619 H   0  0  0  0  0  0  0  0  0  0  0  0
   -4.6266   -0.0905   -0.7321 H   0  0  0  0  0  0  0  0  0  0  0  0
   -6.0544    1.4063    0.7291 H   0  0  0  0  0  0  0  0  0  0  0  0
   -4.4311    2.0031    2.4975 H   0  0  0  0  0  0  0  0  0  0  0  0
   -5.0065    3.4408    1.5626 H   0  0  0  0  0  0  0  0  0  0  0  0
   -2.3084    2.5121    1.8924 H   0  0  0  0  0  0  0  0  0  0  0  0
   -2.8729    4.0107    1.0720 H   0  0  0  0  0  0  0  0  0  0  0  0
   -1.6786    2.5250   -0.5808 H   0  0  0  0  0  0  0  0  0  0  0  0
   -3.5792    3.8520   -1.2635 H   0  0  0  0  0  0  0  0  0  0  0  0
   -3.5346    2.2612   -2.1909 H   0  0  0  0  0  0  0  0  0  0  0  0
   -5.6748    2.1202   -1.5174 H   0  0  0  0  0  0  0  0  0  0  0  0
    3.8666    0.8701   -2.4698 H   0  0  0  0  0  0  0  0  0  0  0  0
    6.3017    1.1581   -2.5529 H   0  0  0  0  0  0  0  0  0  0  0  0
  1  2  1  0
  2  3  2  0
  3  4  1  0
  4  5  2  0
  5  6  1  0
  6  7  1  0
  7  8  1  0
  8  9  2  0
  9 10  1  0
 10 11  2  0
 11 12  1  0
 12 13  2  0
 12 14  1  0
 14 15  2  0
 15 16  1  0
 16 17  2  0
 17 18  1  0
 18 19  2  0
 10 20  1  0
 20 21  1  0
 21 22  1  0
 22 23  1  0
 23 24  1  0
 24 25  1  0
 25 26  1  0
 26 27  1  0
  5 28  1  0
 28 29  2  0
 29  2  1  0
 13  8  1  0
 19 14  1  0
 25 20  1  0
 27 22  1  0
  1 30  1  0
  1 31  1  0
  1 32  1  0
  3 33  1  0
  4 34  1  0
  6 35  1  0
  6 36  1  0
  7 37  1  0
  7 38  1  0
  9 39  1  0
 15 40  1  0
 16 41  1  0
 17 42  1  0
 18 43  1  0
 21 44  1  0
 21 45  1  0
 22 46  1  0
 23 47  1  0
 23 48  1  0
 24 49  1  0
 24 50  1  0
 25 51  1  0
 26 52  1  0
 26 53  1  0
 27 54  1  0
 28 55  1  0
 29 56  1  0
M  END
$$$$
[H]c1c([H])c([H])c(C([H])([H])c2c([H])c([H])c([H])c(C(=O)N([H])C3([H])C([H])([H])C([H])([H])N(C([H])([H])C(=O)OC([H])([H])C([H])([H])[H])C([H])([H])C3([H])[H])c2[H])c([H])c1[H]
     RDKit          3D

 56 58  0  0  0  0  0  0  0  0999 V2000
    8.3097    1.2968   -0.2893 C   0  0  0  0  0  0  0  0  0  0  0  0
    7.1335    1.1580    0.6213 C   0  0  0  0  0  0  0  0  0  0  0  0
    5.9499    1.0842   -0.0988 O   0  0  0  0  0  0  0  0  0  0  0  0
    5.6509    0.0905   -1.0088 C   0  0  0  0  0  0  0  0  0  0  0  0
    6.4825   -0.8418   -1.2319 O   0  0  0  0  0  0  0  0  0  0  0  0
    4.3546    0.1072   -1.7341 C   0  0  0  0  0  0  0  0  0  0  0  0
    3.5502    1.2201   -1.2780 N   0  0  0  0  0  0  0  0  0  0  0  0
    2.2991    1.3012   -1.9973 C   0  0  0  0  0  0  0  0  0  0  0  0
    1.3130    0.2458   -1.6257 C   0  0  0  0  0  0  0  0  0  0  0  0
    1.3091   -0.0071   -0.1313 C   0  0  0  0  0  0  0  0  0  0  0  0
    1.8812    1.2378    0.5172 C   0  0  0  0  0  0  0  0  0  0  0  0
    3.3645    1.2170    0.1528 C   0  0  0  0  0  0  0  0  0  0  0  0
   -0.0117   -0.2409    0.3670 N   0  0  0  0  0  0  0  0  0  0  0  0
   -0.3946   -1.4574    0.9921 C   0  0  0  0  0  0  0  0  0  0  0  0
    0.4654   -2.3635    1.1114 O   0  0  0  0  0  0  0  0  0  0  0  0
   -1.7335   -1.6901    1.4939 C   0  0  0  0  0  0  0  0  0  0  0  0
   -2.0404   -2.9450    1.9877 C   0  0  0  0  0  0  0  0  0  0  0  0
   -3.2876   -3.2365    2.4796 C   0  0  0  0  0  0  0  0  0  0  0  0
   -4.2562   -2.2820    2.4896 C   0  0  0  0  0  0  0  0  0  0  0  0
   -4.0107   -1.0131    2.0112 C   0  0  0  0  0  0  0  0  0  0  0  0
   -5.0197    0.0765    1.9893 C   0  0  0  0  0  0  0  0  0  0  0  0
   -5.7632    0.1534    0.7416 C   0  0  0  0  0  0  0  0  0  0  0  0
   -5.3032    0.9216   -0.3018 C   0  0  0  0  0  0  0  0  0  0  0  0
   -6.0140    0.9997   -1.5066 C   0  0  0  0  0  0  0  0  0  0  0  0
   -7.1890    0.2948   -1.6410 C   0  0  0  0  0  0  0  0  0  0  0  0
   -7.6608   -0.4770   -0.6069 C   0  0  0  0  0  0  0  0  0  0  0  0
   -6.9394   -0.5368    0.5724 C   0  0  0  0  0  0  0  0  0  0  0  0
   -2.7434   -0.7515    1.5222 C   0  0  0  0  0  0  0  0  0  0  0  0
    8.1686    0.9021   -1.2924 H   0  0  0  0  0  0  0  0  0  0  0  0
    8.5359    2.3978   -0.3759 H   0  0  0  0  0  0  0  0  0  0  0  0
    9.2184    0.7951    0.1482 H   0  0  0  0  0  0  0  0  0  0  0  0
    7.0994    2.0325    1.3162 H   0  0  0  0  0  0  0  0  0  0  0  0
    7.2846    0.2604    1.2738 H   0  0  0  0  0  0  0  0  0  0  0  0
    3.8297   -0.8601   -1.6517 H   0  0  0  0  0  0  0  0  0  0  0  0
    4.5722    0.2783   -2.8082 H   0  0  0  0  0  0  0  0  0  0  0  0
    1.9077    2.3359   -1.8947 H   0  0  0  0  0  0  0  0  0  0  0  0
    2.5458    1.1621   -3.0826 H   0  0  0  0  0  0  0  0  0  0  0  0
    1.4207   -0.6864   -2.1973 H   0  0  0  0  0  0  0  0  0  0  0  0
    0.2911    0.6390   -1.8755 H   0  0  0  0  0  0  0  0  0  0  0  0
    1.9214   -0.9146    0.0856 H   0  0  0  0  0  0  0  0  0  0  0  0
    1.3794    2.1140    0.0718 H   0  0  0  0  0  0  0  0  0  0  0  0
    1.7415    1.1464    1.5933 H   0  0  0  0  0  0  0  0  0  0  0  0
    3.8265    2.1200    0.5910 H   0  0  0  0  0  0  0  0  0  0  0  0
    3.7631    0.3182    0.6644 H   0  0  0  0  0  0  0  0  0  0  0  0
   -0.7223    0.5060    0.2700 H   0  0  0  0  0  0  0  0  0  0  0  0
   -1.2824   -3.7239    1.9899 H   0  0  0  0  0  0  0  0  0  0  0  0
   -3.4664   -4.2550    2.8583 H   0  0  0  0  0  0  0  0  0  0  0  0
   -5.2438   -2.5153    2.8802 H   0  0  0  0  0  0  0  0  0  0  0  0
   -5.7098   -0.1273    2.8553 H   0  0  0  0  0  0  0  0  0  0  0  0
   -4.5208    1.0515    2.2649 H   0  0  0  0  0  0  0  0  0  0  0  0
   -4.3910    1.4976   -0.2605 H   0  0  0  0  0  0  0  0  0  0  0  0
   -5.6766    1.5880   -2.3279 H   0  0  0  0  0  0  0  0  0  0  0  0
   -7.7701    0.3331   -2.5698 H   0  0  0  0  0  0  0  0  0  0  0  0
   -8.5695   -1.0370   -0.6777 H   0  0  0  0  0  0  0  0  0  0  0  0
   -7.3344   -1.1555    1.3768 H   0  0  0  0  0  0  0  0  0  0  0  0
   -2.5150    0.2354    1.1382 H   0  0  0  0  0  0  0  0  0  0  0  0
  1  2  1  0
  2  3  1  0
  3  4  1  0
  4  5  2  0
  4  6  1  0
  6  7  1  0
  7  8  1  0
  8  9  1  0
  9 10  1  0
 10 11  1  0
 11 12  1  0
 10 13  1  0
 13 14  1  0
 14 15  2  0
 14 16  1  0
 16 17  2  0
 17 18  1  0
 18 19  2  0
 19 20  1  0
 20 21  1  0
 21 22  1  0
 22 23  2  0
 23 24  1  0
 24 25  2  0
 25 26  1  0
 26 27  2  0
 20 28  2  0
 12  7  1  0
 28 16  1  0
 27 22  1  0
  1 29  1  0
  1 30  1  0
  1 31  1  0
  2 32  1  0
  2 33  1  0
  6 34  1  0
  6 35  1  0
  8 36  1  0
  8 37  1  0
  9 38  1  0
  9 39  1  0
 10 40  1  0
 11 41  1  0
 11 42  1  0
 12 43  1  0
 12 44  1  0
 13 45  1  0
 17 46  1  0
 18 47  1  0
 19 48  1  0
 21 49  1  0
 21 50  1  0
 23 51  1  0
 24 52  1  0
 25 53  1  0
 26 54  1  0
 27 55  1  0
 28 56  1  0
M  END
$$$$
[H]c1c(C(=O)c2c([H])c([H])c([H])c(OC([H])([H])[H])c2[H])oc(-c2c([H])c([H])c([H])c(C([H])([H])N([H])[H])c2[H])c1[H]
     RDKit          3D

 40 42  0  0  0  0  0  0  0  0999 V2000
    7.2552    1.5919    1.3187 C   0  0  0  0  0  0  0  0  0  0  0  0
    6.1343    0.8398    1.7795 O   0  0  0  0  0  0  0  0  0  0  0  0
    5.0940    0.4316    0.9278 C   0  0  0  0  0  0  0  0  0  0  0  0
    5.1094    0.7416   -0.4253 C   0  0  0  0  0  0  0  0  0  0  0  0
    4.0896    0.3466   -1.2649 C   0  0  0  0  0  0  0  0  0  0  0  0
    3.0503   -0.3711   -0.7039 C   0  0  0  0  0  0  0  0  0  0  0  0
    3.0116   -0.6872    0.6197 C   0  0  0  0  0  0  0  0  0  0  0  0
    4.0558   -0.2824    1.4669 C   0  0  0  0  0  0  0  0  0  0  0  0
    1.9046   -1.3991    1.2679 C   0  0  0  0  0  0  0  0  0  0  0  0
    2.0945   -2.0042    2.3637 O   0  0  0  0  0  0  0  0  0  0  0  0
    0.6024   -1.3917    0.6464 C   0  0  0  0  0  0  0  0  0  0  0  0
    0.2229   -2.0130   -0.5075 C   0  0  0  0  0  0  0  0  0  0  0  0
   -1.1321   -1.6985   -0.6869 C   0  0  0  0  0  0  0  0  0  0  0  0
   -1.4978   -0.8979    0.3797 C   0  0  0  0  0  0  0  0  0  0  0  0
   -0.4587   -0.7351    1.1468 O   0  0  0  0  0  0  0  0  0  0  0  0
   -2.8270   -0.3504    0.5686 C   0  0  0  0  0  0  0  0  0  0  0  0
   -3.1753    0.3921    1.6750 C   0  0  0  0  0  0  0  0  0  0  0  0
   -4.4027    0.9828    1.8766 C   0  0  0  0  0  0  0  0  0  0  0  0
   -5.3412    0.8049    0.8807 C   0  0  0  0  0  0  0  0  0  0  0  0
   -5.0478    0.0710   -0.2473 C   0  0  0  0  0  0  0  0  0  0  0  0
   -6.0950   -0.0686   -1.3216 C   0  0  0  0  0  0  0  0  0  0  0  0
   -5.6691    0.6642   -2.5129 N   0  0  0  0  0  0  0  0  0  0  0  0
   -3.8015   -0.5167   -0.4251 C   0  0  0  0  0  0  0  0  0  0  0  0
    7.7393    2.0134    2.2492 H   0  0  0  0  0  0  0  0  0  0  0  0
    6.8322    2.4311    0.6826 H   0  0  0  0  0  0  0  0  0  0  0  0
    7.9733    0.9723    0.7362 H   0  0  0  0  0  0  0  0  0  0  0  0
    5.9732    1.3158   -0.7867 H   0  0  0  0  0  0  0  0  0  0  0  0
    4.1074    0.5888   -2.3224 H   0  0  0  0  0  0  0  0  0  0  0  0
    2.2542   -0.6733   -1.3870 H   0  0  0  0  0  0  0  0  0  0  0  0
    4.0120   -0.5470    2.5094 H   0  0  0  0  0  0  0  0  0  0  0  0
    0.8036   -2.6394   -1.1872 H   0  0  0  0  0  0  0  0  0  0  0  0
   -1.7605   -2.0221   -1.5008 H   0  0  0  0  0  0  0  0  0  0  0  0
   -2.4172    0.5195    2.4522 H   0  0  0  0  0  0  0  0  0  0  0  0
   -4.5903    1.5617    2.7916 H   0  0  0  0  0  0  0  0  0  0  0  0
   -6.3222    1.2713    1.0232 H   0  0  0  0  0  0  0  0  0  0  0  0
   -6.3268   -1.1275   -1.5343 H   0  0  0  0  0  0  0  0  0  0  0  0
   -7.0055    0.4654   -0.9459 H   0  0  0  0  0  0  0  0  0  0  0  0
   -6.1942    1.5723   -2.6192 H   0  0  0  0  0  0  0  0  0  0  0  0
   -4.6403    0.9293   -2.4508 H   0  0  0  0  0  0  0  0  0  0  0  0
   -3.6146   -1.0820   -1.3102 H   0  0  0  0  0  0  0  0  0  0  0  0
  1  2  1  0
  2  3  1  0
  3  4  2  0
  4  5  1  0
  5  6  2  0
  6  7  1  0
  7  8  2  0
  7  9  1  0
  9 10  2  0
  9 11  1  0
 11 12  2  0
 12 13  1  0
 13 14  2  0
 14 15  1  0
 14 16  1  0
 16 17  2  0
 17 18  1  0
 18 19  2  0
 19 20  1  0
 20 21  1  0
 21 22  1  0
 20 23  2  0
  8  3  1  0
 15 11  1  0
 23 16  1  0
  1 24  1  0
  1 25  1  0
  1 26  1  0
  4 27  1  0
  5 28  1  0
  6 29  1  0
  8 30  1  0
 12 31  1  0
 13 32  1  0
 17 33  1  0
 18 34  1  0
 19 35  1  0
 21 36  1  0
 21 37  1  0
 22 38  1  0
 22 39  1  0
 23 40  1  0
M  END
$$$$
[H]c1nc(S(=O)(=O)N2C(=O)C([H])([H])N=C2c2c([H])c([H])c(OC([H])([H])[H])c(OC([H])([H])[H])c2[H])c([H])c([H])c1[H]
     RDKit          3D

 40 42  0  0  0  0  0  0  0  0999 V2000
   -4.3835   -2.5945   -0.2889 C   0  0  0  0  0  0  0  0  0  0  0  0
   -4.3240   -1.2085   -0.5396 O   0  0  0  0  0  0  0  0  0  0  0  0
   -3.1382   -0.5447   -0.2487 C   0  0  0  0  0  0  0  0  0  0  0  0
   -2.0472   -1.2001    0.2647 C   0  0  0  0  0  0  0  0  0  0  0  0
   -0.8344   -0.5903    0.5773 C   0  0  0  0  0  0  0  0  0  0  0  0
   -0.7246    0.7416    0.3569 C   0  0  0  0  0  0  0  0  0  0  0  0
   -1.8345    1.4387   -0.1706 C   0  0  0  0  0  0  0  0  0  0  0  0
   -3.0070    0.8164   -0.4654 C   0  0  0  0  0  0  0  0  0  0  0  0
   -4.1013    1.4882   -0.9837 O   0  0  0  0  0  0  0  0  0  0  0  0
   -4.1291    2.8695   -1.2619 C   0  0  0  0  0  0  0  0  0  0  0  0
    0.2520   -1.4585    1.0625 C   0  0  0  0  0  0  0  0  0  0  0  0
    0.1052   -2.7707    1.0944 N   0  0  0  0  0  0  0  0  0  0  0  0
    1.2246   -3.4737    1.5790 C   0  0  0  0  0  0  0  0  0  0  0  0
    2.1618   -2.4159    1.9833 C   0  0  0  0  0  0  0  0  0  0  0  0
    3.2633   -2.6067    2.5271 O   0  0  0  0  0  0  0  0  0  0  0  0
    1.5067   -1.1593    1.6049 N   0  0  0  0  0  0  0  0  0  0  0  0
    2.2841    0.3154    1.9217 S   0  0  0  0  0  0  0  0  0  0  0  0
    3.3867    0.0204    2.9861 O   0  0  0  0  0  0  0  0  0  0  0  0
    1.5084    1.3956    2.5422 O   0  0  0  0  0  0  0  0  0  0  0  0
    3.1587    0.9323    0.5116 C   0  0  0  0  0  0  0  0  0  0  0  0
    2.9703    2.1939    0.0062 C   0  0  0  0  0  0  0  0  0  0  0  0
    3.6665    2.6875   -1.0675 C   0  0  0  0  0  0  0  0  0  0  0  0
    4.6133    1.8535   -1.6692 C   0  0  0  0  0  0  0  0  0  0  0  0
    4.7655    0.5970   -1.1251 C   0  0  0  0  0  0  0  0  0  0  0  0
    4.0736    0.1456   -0.0803 N   0  0  0  0  0  0  0  0  0  0  0  0
   -3.7839   -3.1846   -1.0138 H   0  0  0  0  0  0  0  0  0  0  0  0
   -4.0551   -2.8813    0.7236 H   0  0  0  0  0  0  0  0  0  0  0  0
   -5.4534   -2.8961   -0.3617 H   0  0  0  0  0  0  0  0  0  0  0  0
   -2.1604   -2.2801    0.4328 H   0  0  0  0  0  0  0  0  0  0  0  0
    0.1467    1.3133    0.5158 H   0  0  0  0  0  0  0  0  0  0  0  0
   -1.7047    2.5180   -0.3326 H   0  0  0  0  0  0  0  0  0  0  0  0
   -5.2093    3.1579   -1.3517 H   0  0  0  0  0  0  0  0  0  0  0  0
   -3.6034    2.9831   -2.2514 H   0  0  0  0  0  0  0  0  0  0  0  0
   -3.6101    3.4483   -0.4676 H   0  0  0  0  0  0  0  0  0  0  0  0
    0.8998   -4.0996    2.4507 H   0  0  0  0  0  0  0  0  0  0  0  0
    1.6754   -4.1813    0.8407 H   0  0  0  0  0  0  0  0  0  0  0  0
    2.2320    2.8284    0.4859 H   0  0  0  0  0  0  0  0  0  0  0  0
    3.5119    3.6662   -1.4488 H   0  0  0  0  0  0  0  0  0  0  0  0
    5.1798    2.1994   -2.5120 H   0  0  0  0  0  0  0  0  0  0  0  0
    5.5178   -0.0646   -1.6047 H   0  0  0  0  0  0  0  0  0  0  0  0
  1  2  1  0
  2  3  1  0
  3  4  2  0
  4  5  1  0
  5  6  2  0
  6  7  1  0
  7  8  2  0
  8  9  1  0
  9 10  1  0
  5 11  1  0
 11 12  2  0
 12 13  1  0
 13 14  1  0
 14 15  2  0
 14 16  1  0
 16 17  1  0
 17 18  2  0
 17 19  2  0
 17 20  1  0
 20 21  2  0
 21 22  1  0
 22 23  2  0
 23 24  1  0
 24 25  2  0
  8  3  1  0
 16 11  1  0
 25 20  1  0
  1 26  1  0
  1 27  1  0
  1 28  1  0
  4 29  1  0
  6 30  1  0
  7 31  1  0
 10 32  1  0
 10 33  1  0
 10 34  1  0
 13 35  1  0
 13 36  1  0
 21 37  1  0
 22 38  1  0
 23 39  1  0
 24 40  1  0
M  END
$$$$
[H]c1c([H])c([H])c(/C(=C2/C(=O)N([H])c3c([H])c(C(=O)OC([H])([H])[H])c([H])c([H])c32)N([H])c2c([H])c([H])c(N(C(=O)C([H])([H])N3C(=O)C([H])([H])Oc4c([H])c([H])c([H])c([H])c43)C([H])([H])[H])c([H])c2[H])c([H])c1[H]
     RDKit          3D

 72 77  0  0  0  0  0  0  0  0999 V2000
   10.3111   -0.2185    3.4984 C   0  0  0  0  0  0  0  0  0  0  0  0
    9.0445   -0.5417    2.9235 O   0  0  0  0  0  0  0  0  0  0  0  0
    8.6290    0.0772    1.7489 C   0  0  0  0  0  0  0  0  0  0  0  0
    9.4277    0.9144    1.2504 O   0  0  0  0  0  0  0  0  0  0  0  0
    7.3538   -0.2149    1.1243 C   0  0  0  0  0  0  0  0  0  0  0  0
    7.0041    0.4349   -0.0355 C   0  0  0  0  0  0  0  0  0  0  0  0
    5.7998    0.1958   -0.6714 C   0  0  0  0  0  0  0  0  0  0  0  0
    4.9326   -0.7156   -0.1232 C   0  0  0  0  0  0  0  0  0  0  0  0
    3.6251   -1.1957   -0.5633 C   0  0  0  0  0  0  0  0  0  0  0  0
    2.8866   -0.7793   -1.5607 C   0  0  0  0  0  0  0  0  0  0  0  0
    1.6393   -1.4576   -1.7678 N   0  0  0  0  0  0  0  0  0  0  0  0
    0.3751   -1.0289   -1.3423 C   0  0  0  0  0  0  0  0  0  0  0  0
   -0.7847   -1.6519   -1.8356 C   0  0  0  0  0  0  0  0  0  0  0  0
   -2.0412   -1.2776   -1.4474 C   0  0  0  0  0  0  0  0  0  0  0  0
   -2.2359   -0.2669   -0.5497 C   0  0  0  0  0  0  0  0  0  0  0  0
   -1.1296    0.3717   -0.0399 C   0  0  0  0  0  0  0  0  0  0  0  0
    0.1455   -0.0214   -0.4449 C   0  0  0  0  0  0  0  0  0  0  0  0
   -3.5780    0.1259   -0.1351 N   0  0  0  0  0  0  0  0  0  0  0  0
   -3.8467    0.0593    1.2643 C   0  0  0  0  0  0  0  0  0  0  0  0
   -4.4633    0.5238   -1.1120 C   0  0  0  0  0  0  0  0  0  0  0  0
   -3.9333    0.4937   -2.3334 O   0  0  0  0  0  0  0  0  0  0  0  0
   -5.8486    0.9703   -1.1118 C   0  0  0  0  0  0  0  0  0  0  0  0
   -6.5891    1.0690    0.0863 N   0  0  0  0  0  0  0  0  0  0  0  0
   -6.6344    2.2789    0.8833 C   0  0  0  0  0  0  0  0  0  0  0  0
   -5.7703    3.1496    0.6741 O   0  0  0  0  0  0  0  0  0  0  0  0
   -7.6580    2.5133    1.9233 C   0  0  0  0  0  0  0  0  0  0  0  0
   -8.1420    1.2930    2.4500 O   0  0  0  0  0  0  0  0  0  0  0  0
   -8.1391    0.1100    1.7330 C   0  0  0  0  0  0  0  0  0  0  0  0
   -8.9041   -0.9461    2.1961 C   0  0  0  0  0  0  0  0  0  0  0  0
   -8.9288   -2.1407    1.5138 C   0  0  0  0  0  0  0  0  0  0  0  0
   -8.1833   -2.2604    0.3724 C   0  0  0  0  0  0  0  0  0  0  0  0
   -7.4098   -1.2079   -0.1054 C   0  0  0  0  0  0  0  0  0  0  0  0
   -7.3913   -0.0156    0.5837 C   0  0  0  0  0  0  0  0  0  0  0  0
    3.2087    0.3703   -2.3764 C   0  0  0  0  0  0  0  0  0  0  0  0
    3.1217    1.6645   -1.8369 C   0  0  0  0  0  0  0  0  0  0  0  0
    3.3732    2.7979   -2.5528 C   0  0  0  0  0  0  0  0  0  0  0  0
    3.7300    2.6690   -3.8690 C   0  0  0  0  0  0  0  0  0  0  0  0
    3.8220    1.3942   -4.4241 C   0  0  0  0  0  0  0  0  0  0  0  0
    3.5690    0.2692   -3.7007 C   0  0  0  0  0  0  0  0  0  0  0  0
    3.1909   -2.2243    0.4346 C   0  0  0  0  0  0  0  0  0  0  0  0
    2.1258   -2.8745    0.4055 O   0  0  0  0  0  0  0  0  0  0  0  0
    4.2140   -2.3099    1.3980 N   0  0  0  0  0  0  0  0  0  0  0  0
    5.2580   -1.3958    1.0535 C   0  0  0  0  0  0  0  0  0  0  0  0
    6.4762   -1.1127    1.6405 C   0  0  0  0  0  0  0  0  0  0  0  0
   11.0527   -0.1791    2.6730 H   0  0  0  0  0  0  0  0  0  0  0  0
   10.1869    0.7839    3.9658 H   0  0  0  0  0  0  0  0  0  0  0  0
   10.5622   -0.9892    4.2260 H   0  0  0  0  0  0  0  0  0  0  0  0
    7.7249    1.1540   -0.4358 H   0  0  0  0  0  0  0  0  0  0  0  0
    5.6645    0.7229   -1.5774 H   0  0  0  0  0  0  0  0  0  0  0  0
    1.7161   -2.3593   -2.2921 H   0  0  0  0  0  0  0  0  0  0  0  0
   -0.6284   -2.4606   -2.5539 H   0  0  0  0  0  0  0  0  0  0  0  0
   -2.8913   -1.7875   -1.8564 H   0  0  0  0  0  0  0  0  0  0  0  0
   -1.2663    1.1667    0.6653 H   0  0  0  0  0  0  0  0  0  0  0  0
    0.9749    0.5024   -0.0022 H   0  0  0  0  0  0  0  0  0  0  0  0
   -2.9159   -0.3587    1.7713 H   0  0  0  0  0  0  0  0  0  0  0  0
   -4.6149   -0.6938    1.5264 H   0  0  0  0  0  0  0  0  0  0  0  0
   -4.0230    1.0380    1.7579 H   0  0  0  0  0  0  0  0  0  0  0  0
   -6.4062    0.4171   -1.9249 H   0  0  0  0  0  0  0  0  0  0  0  0
   -5.8375    2.0491   -1.5343 H   0  0  0  0  0  0  0  0  0  0  0  0
   -8.5173    3.0085    1.4227 H   0  0  0  0  0  0  0  0  0  0  0  0
   -7.2267    3.1383    2.7233 H   0  0  0  0  0  0  0  0  0  0  0  0
   -9.4867   -0.7998    3.1202 H   0  0  0  0  0  0  0  0  0  0  0  0
   -9.5297   -2.9693    1.8772 H   0  0  0  0  0  0  0  0  0  0  0  0
   -8.1562   -3.1732   -0.2149 H   0  0  0  0  0  0  0  0  0  0  0  0
   -6.8230   -1.2973   -0.9951 H   0  0  0  0  0  0  0  0  0  0  0  0
    2.8419    1.7575   -0.7981 H   0  0  0  0  0  0  0  0  0  0  0  0
    3.2803    3.7557   -2.0492 H   0  0  0  0  0  0  0  0  0  0  0  0
    3.9294    3.5595   -4.4386 H   0  0  0  0  0  0  0  0  0  0  0  0
    4.1116    1.3813   -5.4796 H   0  0  0  0  0  0  0  0  0  0  0  0
    3.6468   -0.6924   -4.1498 H   0  0  0  0  0  0  0  0  0  0  0  0
    4.2370   -2.9287    2.2366 H   0  0  0  0  0  0  0  0  0  0  0  0
    6.7414   -1.6339    2.5569 H   0  0  0  0  0  0  0  0  0  0  0  0
  1  2  1  0
  2  3  1  0
  3  4  2  0
  3  5  1  0
  5  6  2  0
  6  7  1  0
  7  8  2  0
  8  9  1  0
  9 10  2  0
 10 11  1  0
 11 12  1  0
 12 13  2  0
 13 14  1  0
 14 15  2  0
 15 16  1  0
 16 17  2  0
 15 18  1  0
 18 19  1  0
 18 20  1  0
 20 21  2  0
 20 22  1  0
 22 23  1  0
 23 24  1  0
 24 25  2  0
 24 26  1  0
 26 27  1  0
 27 28  1  0
 28 29  2  0
 29 30  1  0
 30 31  2  0
 31 32  1  0
 32 33  2  0
 10 34  1  0
 34 35  2  0
 35 36  1  0
 36 37  2  0
 37 38  1  0
 38 39  2  0
  9 40  1  0
 40 41  2  0
 40 42  1  0
 42 43  1  0
 43 44  2  0
 44  5  1  0
 43  8  1  0
 17 12  1  0
 33 23  1  0
 39 34  1  0
 33 28  1  0
  1 45  1  0
  1 46  1  0
  1 47  1  0
  6 48  1  0
  7 49  1  0
 11 50  1  0
 13 51  1  0
 14 52  1  0
 16 53  1  0
 17 54  1  0
 19 55  1  0
 19 56  1  0
 19 57  1  0
 22 58  1  0
 22 59  1  0
 26 60  1  0
 26 61  1  0
 29 62  1  0
 30 63  1  0
 31 64  1  0
 32 65  1  0
 35 66  1  0
 36 67  1  0
 37 68  1  0
 38 69  1  0
 39 70  1  0
 42 71  1  0
 44 72  1  0
M  END
$$$$
[H]c1c([H])c([C@]([H])(N([H])[C@]([H])(C(=O)N([H])C2(C#N)C([H])([H])C2([H])[H])C([H])(C([H])([H])[H])C([H])([H])C([H])([H])[H])C(F)(F)F)c([H])c([H])c1-c1c([H])c([H])c(S(=O)(=O)C([H])([H])[H])c([H])c1[H]
     RDKit          3D

 63 65  0  0  0  0  0  0  0  0999 V2000
   -6.7057   -2.1313   -0.4825 C   0  0  0  0  0  0  0  0  0  0  0  0
   -5.6223   -1.1091   -0.7587 C   0  0  0  0  0  0  0  0  0  0  0  0
   -4.2510   -1.6460   -0.4512 C   0  0  0  0  0  0  0  0  0  0  0  0
   -4.1354   -2.0769    1.0091 C   0  0  0  0  0  0  0  0  0  0  0  0
   -3.1679   -0.6930   -0.7526 C   0  0  2  0  0  0  0  0  0  0  0  0
   -1.8280   -1.0235   -0.6493 N   0  0  0  0  0  0  0  0  0  0  0  0
   -0.9657   -1.8323   -1.3165 C   0  0  1  0  0  0  0  0  0  0  0  0
    0.4410   -1.4014   -0.9442 C   0  0  0  0  0  0  0  0  0  0  0  0
    1.4034   -2.2157   -0.4471 C   0  0  0  0  0  0  0  0  0  0  0  0
    2.6760   -1.7009   -0.1428 C   0  0  0  0  0  0  0  0  0  0  0  0
    2.9805   -0.3769   -0.3358 C   0  0  0  0  0  0  0  0  0  0  0  0
    1.9857    0.4292   -0.8419 C   0  0  0  0  0  0  0  0  0  0  0  0
    0.7251   -0.0639   -1.1478 C   0  0  0  0  0  0  0  0  0  0  0  0
    4.2964    0.1774   -0.0228 C   0  0  0  0  0  0  0  0  0  0  0  0
    4.4877    1.4609    0.3933 C   0  0  0  0  0  0  0  0  0  0  0  0
    5.7529    1.9265    0.6735 C   0  0  0  0  0  0  0  0  0  0  0  0
    6.8656    1.1191    0.5448 C   0  0  0  0  0  0  0  0  0  0  0  0
    6.6582   -0.1774    0.1229 C   0  0  0  0  0  0  0  0  0  0  0  0
    5.3907   -0.6486   -0.1590 C   0  0  0  0  0  0  0  0  0  0  0  0
    8.4845    1.7081    0.9039 S   0  0  0  0  0  0  0  0  0  0  0  0
    9.1754    2.4248   -0.5648 C   0  0  0  0  0  0  0  0  0  0  0  0
    8.4908    2.6776    2.0435 O   0  0  0  0  0  0  0  0  0  0  0  0
    9.3472    0.5149    1.2837 O   0  0  0  0  0  0  0  0  0  0  0  0
   -1.0738   -3.3036   -1.4449 C   0  0  0  0  0  0  0  0  0  0  0  0
   -2.1747   -3.7850   -2.1142 F   0  0  0  0  0  0  0  0  0  0  0  0
    0.0211   -3.7521   -2.2051 F   0  0  0  0  0  0  0  0  0  0  0  0
   -0.9840   -3.9480   -0.2095 F   0  0  0  0  0  0  0  0  0  0  0  0
   -3.3400    0.6879   -0.1130 C   0  0  0  0  0  0  0  0  0  0  0  0
   -2.5162    1.5818   -0.5559 O   0  0  0  0  0  0  0  0  0  0  0  0
   -4.2210    1.0982    0.8524 N   0  0  0  0  0  0  0  0  0  0  0  0
   -4.3338    2.4361    1.3968 C   0  0  0  0  0  0  0  0  0  0  0  0
   -3.0852    3.0133    2.0474 C   0  0  0  0  0  0  0  0  0  0  0  0
   -3.7691    3.6494    0.8336 C   0  0  0  0  0  0  0  0  0  0  0  0
   -5.5227    2.6130    2.2716 C   0  0  0  0  0  0  0  0  0  0  0  0
   -6.4402    2.7620    2.9617 N   0  0  0  0  0  0  0  0  0  0  0  0
   -6.7292   -2.9274   -1.2544 H   0  0  0  0  0  0  0  0  0  0  0  0
   -6.6501   -2.6083    0.4916 H   0  0  0  0  0  0  0  0  0  0  0  0
   -7.6909   -1.6075   -0.5651 H   0  0  0  0  0  0  0  0  0  0  0  0
   -5.8535   -0.1434   -0.4621 H   0  0  0  0  0  0  0  0  0  0  0  0
   -5.6240   -1.0572   -1.9287 H   0  0  0  0  0  0  0  0  0  0  0  0
   -4.1421   -2.5735   -1.0343 H   0  0  0  0  0  0  0  0  0  0  0  0
   -3.3619   -1.4385    1.4748 H   0  0  0  0  0  0  0  0  0  0  0  0
   -5.0584   -1.9701    1.5762 H   0  0  0  0  0  0  0  0  0  0  0  0
   -3.7098   -3.1164    1.0713 H   0  0  0  0  0  0  0  0  0  0  0  0
   -3.3324   -0.4179   -1.8828 H   0  0  0  0  0  0  0  0  0  0  0  0
   -1.4364   -0.5602    0.2365 H   0  0  0  0  0  0  0  0  0  0  0  0
   -0.9366   -1.5062   -2.4715 H   0  0  0  0  0  0  0  0  0  0  0  0
    1.2795   -3.2617   -0.2475 H   0  0  0  0  0  0  0  0  0  0  0  0
    3.4403   -2.3371    0.2485 H   0  0  0  0  0  0  0  0  0  0  0  0
    2.1812    1.4635   -1.0064 H   0  0  0  0  0  0  0  0  0  0  0  0
   -0.0224    0.5981   -1.5470 H   0  0  0  0  0  0  0  0  0  0  0  0
    3.6044    2.1094    0.4982 H   0  0  0  0  0  0  0  0  0  0  0  0
    5.8869    2.9343    0.9985 H   0  0  0  0  0  0  0  0  0  0  0  0
    7.5004   -0.8530    0.0071 H   0  0  0  0  0  0  0  0  0  0  0  0
    5.2885   -1.6852   -0.4894 H   0  0  0  0  0  0  0  0  0  0  0  0
   10.2194    2.0853   -0.6937 H   0  0  0  0  0  0  0  0  0  0  0  0
    9.1604    3.5424   -0.4849 H   0  0  0  0  0  0  0  0  0  0  0  0
    8.5692    2.1113   -1.4287 H   0  0  0  0  0  0  0  0  0  0  0  0
   -4.8774    0.3964    1.3150 H   0  0  0  0  0  0  0  0  0  0  0  0
   -2.1404    2.4562    1.8669 H   0  0  0  0  0  0  0  0  0  0  0  0
   -3.1661    3.5941    2.9804 H   0  0  0  0  0  0  0  0  0  0  0  0
   -4.3424    4.6086    1.0625 H   0  0  0  0  0  0  0  0  0  0  0  0
   -3.1019    3.7696   -0.0094 H   0  0  0  0  0  0  0  0  0  0  0  0
  1  2  1  0
  2  3  1  0
  3  4  1  0
  3  5  1  0
  5  6  1  0
  6  7  1  0
  7  8  1  0
  8  9  2  0
  9 10  1  0
 10 11  2  0
 11 12  1  0
 12 13  2  0
 11 14  1  0
 14 15  2  0
 15 16  1  0
 16 17  2  0
 17 18  1  0
 18 19  2  0
 17 20  1  0
 20 21  1  0
 20 22  2  0
 20 23  2  0
  7 24  1  0
 24 25  1  0
 24 26  1  0
 24 27  1  0
  5 28  1  0
 28 29  2  0
 28 30  1  0
 30 31  1  0
 31 32  1  0
 32 33  1  0
 31 34  1  0
 34 35  3  0
 13  8  1  0
 19 14  1  0
 33 31  1  0
  1 36  1  0
  1 37  1  0
  1 38  1  0
  2 39  1  0
  2 40  1  0
  3 41  1  0
  4 42  1  0
  4 43  1  0
  4 44  1  0
  5 45  1  6
  6 46  1  0
  7 47  1  6
  9 48  1  0
 10 49  1  0
 12 50  1  0
 13 51  1  0
 15 52  1  0
 16 53  1  0
 18 54  1  0
 19 55  1  0
 21 56  1  0
 21 57  1  0
 21 58  1  0
 30 59  1  0
 32 60  1  0
 32 61  1  0
 33 62  1  0
 33 63  1  0
M  END
$$$$
[H]c1nc(N([H])[H])sc1-c1c([H])c([H])c2c(-c3nc(N4C([H])([H])C([H])([H])N([H])C([H])([H])C4([H])[H])c([H])c([H])c3[H])nn([H])c2c1[H]
     RDKit          3D

 46 50  0  0  0  0  0  0  0  0999 V2000
    8.6646    2.1993   -0.6075 N   0  0  0  0  0  0  0  0  0  0  0  0
    7.2597    1.8522   -0.5460 C   0  0  0  0  0  0  0  0  0  0  0  0
    6.2766    2.2746   -1.3273 N   0  0  0  0  0  0  0  0  0  0  0  0
    5.0694    1.8561   -1.1258 C   0  0  0  0  0  0  0  0  0  0  0  0
    4.8659    0.9779   -0.0914 C   0  0  0  0  0  0  0  0  0  0  0  0
    6.4432    0.8071    0.5343 S   0  0  0  0  0  0  0  0  0  0  0  0
    3.5937    0.3582    0.3424 C   0  0  0  0  0  0  0  0  0  0  0  0
    2.4206    0.6250   -0.2984 C   0  0  0  0  0  0  0  0  0  0  0  0
    1.2444    0.0229    0.1386 C   0  0  0  0  0  0  0  0  0  0  0  0
    1.2556   -0.8489    1.2237 C   0  0  0  0  0  0  0  0  0  0  0  0
    0.2992   -1.5705    1.8667 C   0  0  0  0  0  0  0  0  0  0  0  0
    0.9291   -2.2374    2.8609 N   0  0  0  0  0  0  0  0  0  0  0  0
    2.2068   -1.9666    2.8621 N   0  0  0  0  0  0  0  0  0  0  0  0
    2.4746   -1.0976    1.8542 C   0  0  0  0  0  0  0  0  0  0  0  0
    3.6274   -0.4912    1.4057 C   0  0  0  0  0  0  0  0  0  0  0  0
   -1.1216   -1.6324    1.5683 C   0  0  0  0  0  0  0  0  0  0  0  0
   -1.9376   -2.4435    2.3594 C   0  0  0  0  0  0  0  0  0  0  0  0
   -3.2887   -2.5518    2.1368 C   0  0  0  0  0  0  0  0  0  0  0  0
   -3.8341   -1.8309    1.0978 C   0  0  0  0  0  0  0  0  0  0  0  0
   -3.0365   -1.0110    0.2908 C   0  0  0  0  0  0  0  0  0  0  0  0
   -1.7374   -0.9724    0.5862 N   0  0  0  0  0  0  0  0  0  0  0  0
   -3.6180   -0.2758   -0.7752 N   0  0  0  0  0  0  0  0  0  0  0  0
   -5.0378   -0.3919   -0.9995 C   0  0  0  0  0  0  0  0  0  0  0  0
   -5.5694    0.5939   -1.9865 C   0  0  0  0  0  0  0  0  0  0  0  0
   -4.7759    1.8110   -1.8555 N   0  0  0  0  0  0  0  0  0  0  0  0
   -3.4863    1.5094   -2.4736 C   0  0  0  0  0  0  0  0  0  0  0  0
   -2.7623    0.5545   -1.5865 C   0  0  0  0  0  0  0  0  0  0  0  0
    9.0947    2.4693   -1.4983 H   0  0  0  0  0  0  0  0  0  0  0  0
    9.2200    2.1659    0.2779 H   0  0  0  0  0  0  0  0  0  0  0  0
    4.2156    2.1846   -1.7569 H   0  0  0  0  0  0  0  0  0  0  0  0
    2.3850    1.2987   -1.1442 H   0  0  0  0  0  0  0  0  0  0  0  0
    0.3102    0.2130   -0.3441 H   0  0  0  0  0  0  0  0  0  0  0  0
    2.9645   -2.3196    3.5002 H   0  0  0  0  0  0  0  0  0  0  0  0
    4.5498   -0.7221    1.9358 H   0  0  0  0  0  0  0  0  0  0  0  0
   -1.4814   -2.9979    3.1682 H   0  0  0  0  0  0  0  0  0  0  0  0
   -3.8983   -3.1954    2.7747 H   0  0  0  0  0  0  0  0  0  0  0  0
   -4.9002   -1.9081    0.9118 H   0  0  0  0  0  0  0  0  0  0  0  0
   -5.5504   -0.1965   -0.0228 H   0  0  0  0  0  0  0  0  0  0  0  0
   -5.3059   -1.4114   -1.3682 H   0  0  0  0  0  0  0  0  0  0  0  0
   -5.5002    0.2190   -3.0439 H   0  0  0  0  0  0  0  0  0  0  0  0
   -6.6053    0.8502   -1.7444 H   0  0  0  0  0  0  0  0  0  0  0  0
   -5.1940    2.6265   -2.3114 H   0  0  0  0  0  0  0  0  0  0  0  0
   -3.6532    1.1069   -3.5030 H   0  0  0  0  0  0  0  0  0  0  0  0
   -2.8956    2.4242   -2.5884 H   0  0  0  0  0  0  0  0  0  0  0  0
   -2.0962   -0.0804   -2.2040 H   0  0  0  0  0  0  0  0  0  0  0  0
   -2.0846    1.1529   -0.9146 H   0  0  0  0  0  0  0  0  0  0  0  0
  1  2  1  0
  2  3  2  0
  3  4  1  0
  4  5  2  0
  5  6  1  0
  5  7  1  0
  7  8  2  0
  8  9  1  0
  9 10  2  0
 10 11  1  0
 11 12  2  0
 12 13  1  0
 13 14  1  0
 14 15  2  0
 11 16  1  0
 16 17  2  0
 17 18  1  0
 18 19  2  0
 19 20  1  0
 20 21  2  0
 20 22  1  0
 22 23  1  0
 23 24  1  0
 24 25  1  0
 25 26  1  0
 26 27  1  0
  6  2  1  0
 15  7  1  0
 21 16  1  0
 27 22  1  0
 14 10  1  0
  1 28  1  0
  1 29  1  0
  4 30  1  0
  8 31  1  0
  9 32  1  0
 13 33  1  0
 15 34  1  0
 17 35  1  0
 18 36  1  0
 19 37  1  0
 23 38  1  0
 23 39  1  0
 24 40  1  0
 24 41  1  0
 25 42  1  0
 26 43  1  0
 26 44  1  0
 27 45  1  0
 27 46  1  0
M  END
$$$$
[H]c1nc(N([H])C2([H])C([H])([H])C([H])([H])N(C([H])([H])C([H])([H])[C@@]3([H])N(S(=O)(=O)c4c([H])c([H])c([H])c([H])c4C#N)C([H])([H])C([H])([H])C3([H])[H])C([H])([H])C2([H])[H])nc(C(F)(F)F)c1[H]
     RDKit          3D

 62 65  0  0  0  0  0  0  0  0999 V2000
    7.4934    2.0836    2.2023 F   0  0  0  0  0  0  0  0  0  0  0  0
    8.0907    0.8307    2.1206 C   0  0  0  0  0  0  0  0  0  0  0  0
    7.6385    0.0883    3.2043 F   0  0  0  0  0  0  0  0  0  0  0  0
    9.4448    0.9323    2.0603 F   0  0  0  0  0  0  0  0  0  0  0  0
    7.5889    0.2267    0.8431 C   0  0  0  0  0  0  0  0  0  0  0  0
    8.4516   -0.1003   -0.1871 C   0  0  0  0  0  0  0  0  0  0  0  0
    7.9353   -0.6662   -1.3378 C   0  0  0  0  0  0  0  0  0  0  0  0
    6.6245   -0.9076   -1.4858 N   0  0  0  0  0  0  0  0  0  0  0  0
    5.7942   -0.5801   -0.4599 C   0  0  0  0  0  0  0  0  0  0  0  0
    4.3955   -0.8923   -0.6030 N   0  0  0  0  0  0  0  0  0  0  0  0
    3.4655   -0.5482    0.4375 C   0  0  0  0  0  0  0  0  0  0  0  0
    2.1793   -1.3207    0.1396 C   0  0  0  0  0  0  0  0  0  0  0  0
    1.5924   -0.7389   -1.1116 C   0  0  0  0  0  0  0  0  0  0  0  0
    1.2645    0.6430   -0.9540 N   0  0  0  0  0  0  0  0  0  0  0  0
    0.1701    0.9003   -0.0142 C   0  0  0  0  0  0  0  0  0  0  0  0
   -1.0446    0.3197   -0.5881 C   0  0  0  0  0  0  0  0  0  0  0  0
   -2.3458    0.4869    0.1934 C   0  0  2  0  0  0  0  0  0  0  0  0
   -2.2342   -0.0934    1.5765 C   0  0  0  0  0  0  0  0  0  0  0  0
   -2.8625   -1.4367    1.5214 C   0  0  0  0  0  0  0  0  0  0  0  0
   -3.6399   -1.4550    0.2404 C   0  0  0  0  0  0  0  0  0  0  0  0
   -3.2714   -0.3258   -0.5182 N   0  0  0  0  0  0  0  0  0  0  0  0
   -4.4230    0.4477   -1.4418 S   0  0  0  0  0  0  0  0  0  0  0  0
   -4.2839   -0.0646   -2.8750 O   0  0  0  0  0  0  0  0  0  0  0  0
   -4.1850    1.9379   -1.5847 O   0  0  0  0  0  0  0  0  0  0  0  0
   -6.0731    0.1352   -0.9523 C   0  0  0  0  0  0  0  0  0  0  0  0
   -6.8563   -0.6725   -1.7824 C   0  0  0  0  0  0  0  0  0  0  0  0
   -8.1514   -1.0343   -1.4725 C   0  0  0  0  0  0  0  0  0  0  0  0
   -8.7042   -0.5848   -0.2947 C   0  0  0  0  0  0  0  0  0  0  0  0
   -7.9349    0.2128    0.5255 C   0  0  0  0  0  0  0  0  0  0  0  0
   -6.6396    0.5660    0.1954 C   0  0  0  0  0  0  0  0  0  0  0  0
   -5.8831    1.4435    1.0785 C   0  0  0  0  0  0  0  0  0  0  0  0
   -5.2985    2.1558    1.7674 N   0  0  0  0  0  0  0  0  0  0  0  0
    2.4002    1.4540   -0.6484 C   0  0  0  0  0  0  0  0  0  0  0  0
    3.2157    0.9186    0.4643 C   0  0  0  0  0  0  0  0  0  0  0  0
    6.2875   -0.0329    0.6516 N   0  0  0  0  0  0  0  0  0  0  0  0
    9.5066    0.0814   -0.0913 H   0  0  0  0  0  0  0  0  0  0  0  0
    8.6241   -0.9147   -2.1359 H   0  0  0  0  0  0  0  0  0  0  0  0
    4.0627   -1.3770   -1.4754 H   0  0  0  0  0  0  0  0  0  0  0  0
    3.8113   -0.8563    1.4422 H   0  0  0  0  0  0  0  0  0  0  0  0
    2.4636   -2.3648   -0.0414 H   0  0  0  0  0  0  0  0  0  0  0  0
    1.4666   -1.2765    0.9629 H   0  0  0  0  0  0  0  0  0  0  0  0
    2.2892   -0.7917   -1.9874 H   0  0  0  0  0  0  0  0  0  0  0  0
    0.7250   -1.3240   -1.4081 H   0  0  0  0  0  0  0  0  0  0  0  0
    0.0556    2.0137    0.0491 H   0  0  0  0  0  0  0  0  0  0  0  0
    0.4358    0.4856    0.9893 H   0  0  0  0  0  0  0  0  0  0  0  0
   -0.9145   -0.7667   -0.8141 H   0  0  0  0  0  0  0  0  0  0  0  0
   -1.2050    0.7913   -1.6045 H   0  0  0  0  0  0  0  0  0  0  0  0
   -2.5749    1.5503    0.2522 H   0  0  0  0  0  0  0  0  0  0  0  0
   -1.1942   -0.1047    1.9638 H   0  0  0  0  0  0  0  0  0  0  0  0
   -2.8155    0.5379    2.2780 H   0  0  0  0  0  0  0  0  0  0  0  0
   -3.5281   -1.5765    2.4164 H   0  0  0  0  0  0  0  0  0  0  0  0
   -2.0555   -2.2082    1.5608 H   0  0  0  0  0  0  0  0  0  0  0  0
   -3.2859   -2.3672   -0.3298 H   0  0  0  0  0  0  0  0  0  0  0  0
   -4.7102   -1.5507    0.4694 H   0  0  0  0  0  0  0  0  0  0  0  0
   -6.4748   -1.0665   -2.7360 H   0  0  0  0  0  0  0  0  0  0  0  0
   -8.7536   -1.6644   -2.1239 H   0  0  0  0  0  0  0  0  0  0  0  0
   -9.7272   -0.8552   -0.0300 H   0  0  0  0  0  0  0  0  0  0  0  0
   -8.3509    0.5805    1.4630 H   0  0  0  0  0  0  0  0  0  0  0  0
    2.9983    1.6950   -1.5539 H   0  0  0  0  0  0  0  0  0  0  0  0
    1.9697    2.4435   -0.2899 H   0  0  0  0  0  0  0  0  0  0  0  0
    2.7741    1.2608    1.4369 H   0  0  0  0  0  0  0  0  0  0  0  0
    4.2065    1.4496    0.4272 H   0  0  0  0  0  0  0  0  0  0  0  0
  1  2  1  0
  2  3  1  0
  2  4  1  0
  2  5  1  0
  5  6  2  0
  6  7  1  0
  7  8  2  0
  8  9  1  0
  9 10  1  0
 10 11  1  0
 11 12  1  0
 12 13  1  0
 13 14  1  0
 14 15  1  0
 15 16  1  0
 16 17  1  0
 17 18  1  0
 18 19  1  0
 19 20  1  0
 20 21  1  0
 21 22  1  0
 22 23  2  0
 22 24  2  0
 22 25  1  0
 25 26  2  0
 26 27  1  0
 27 28  2  0
 28 29  1  0
 29 30  2  0
 30 31  1  0
 31 32  3  0
 14 33  1  0
 33 34  1  0
  9 35  2  0
 35  5  1  0
 34 11  1  0
 21 17  1  0
 30 25  1  0
  6 36  1  0
  7 37  1  0
 10 38  1  0
 11 39  1  0
 12 40  1  0
 12 41  1  0
 13 42  1  0
 13 43  1  0
 15 44  1  0
 15 45  1  0
 16 46  1  0
 16 47  1  0
 17 48  1  1
 18 49  1  0
 18 50  1  0
 19 51  1  0
 19 52  1  0
 20 53  1  0
 20 54  1  0
 26 55  1  0
 27 56  1  0
 28 57  1  0
 29 58  1  0
 33 59  1  0
 33 60  1  0
 34 61  1  0
 34 62  1  0
M  END
$$$$
[H]c1sc2c(=O)c3c([H])c([H])c(F)c([H])c3oc2c1-c1c([H])c([H])c(OC([H])([H])[H])c([H])c1[H]
     RDKit          3D

 34 37  0  0  0  0  0  0  0  0999 V2000
    5.9596   -1.4665   -0.4808 C   0  0  0  0  0  0  0  0  0  0  0  0
    4.6707   -1.6987   -0.9454 O   0  0  0  0  0  0  0  0  0  0  0  0
    3.5016   -1.3778   -0.2778 C   0  0  0  0  0  0  0  0  0  0  0  0
    2.2975   -1.6740   -0.8742 C   0  0  0  0  0  0  0  0  0  0  0  0
    1.0840   -1.3859   -0.2736 C   0  0  0  0  0  0  0  0  0  0  0  0
    1.0687   -0.7823    0.9630 C   0  0  0  0  0  0  0  0  0  0  0  0
    2.2618   -0.4830    1.5659 C   0  0  0  0  0  0  0  0  0  0  0  0
    3.4849   -0.7755    0.9562 C   0  0  0  0  0  0  0  0  0  0  0  0
   -0.2351   -0.4631    1.6278 C   0  0  0  0  0  0  0  0  0  0  0  0
   -0.3964   -0.7562    2.9500 C   0  0  0  0  0  0  0  0  0  0  0  0
   -1.9848   -0.2383    3.2787 S   0  0  0  0  0  0  0  0  0  0  0  0
   -2.4129    0.3401    1.7316 C   0  0  0  0  0  0  0  0  0  0  0  0
   -1.2899    0.1091    0.9951 C   0  0  0  0  0  0  0  0  0  0  0  0
   -1.3531    0.4787   -0.2927 O   0  0  0  0  0  0  0  0  0  0  0  0
   -2.4080    1.0241   -0.8253 C   0  0  0  0  0  0  0  0  0  0  0  0
   -2.3625    1.3715   -2.1847 C   0  0  0  0  0  0  0  0  0  0  0  0
   -3.4633    1.9460   -2.7606 C   0  0  0  0  0  0  0  0  0  0  0  0
   -3.4090    2.2800   -4.0826 F   0  0  0  0  0  0  0  0  0  0  0  0
   -4.6432    2.2220   -2.1108 C   0  0  0  0  0  0  0  0  0  0  0  0
   -4.6717    1.8694   -0.7562 C   0  0  0  0  0  0  0  0  0  0  0  0
   -3.5828    1.2923   -0.1539 C   0  0  0  0  0  0  0  0  0  0  0  0
   -3.5605    0.9275    1.1744 C   0  0  0  0  0  0  0  0  0  0  0  0
   -4.5437    1.1053    1.9104 O   0  0  0  0  0  0  0  0  0  0  0  0
    6.5885   -1.1961   -1.3795 H   0  0  0  0  0  0  0  0  0  0  0  0
    6.4302   -2.3977   -0.0826 H   0  0  0  0  0  0  0  0  0  0  0  0
    6.0692   -0.6429    0.2291 H   0  0  0  0  0  0  0  0  0  0  0  0
    2.2638   -2.1433   -1.8353 H   0  0  0  0  0  0  0  0  0  0  0  0
    0.1470   -1.6249   -0.7551 H   0  0  0  0  0  0  0  0  0  0  0  0
    2.2300   -0.0052    2.5451 H   0  0  0  0  0  0  0  0  0  0  0  0
    4.4249   -0.5390    1.4325 H   0  0  0  0  0  0  0  0  0  0  0  0
    0.3474   -1.2219    3.6278 H   0  0  0  0  0  0  0  0  0  0  0  0
   -1.4811    1.1880   -2.7548 H   0  0  0  0  0  0  0  0  0  0  0  0
   -5.4905    2.6755   -2.5959 H   0  0  0  0  0  0  0  0  0  0  0  0
   -5.5415    2.0428   -0.1652 H   0  0  0  0  0  0  0  0  0  0  0  0
  1  2  1  0
  2  3  1  0
  3  4  2  0
  4  5  1  0
  5  6  2  0
  6  7  1  0
  7  8  2  0
  6  9  1  0
  9 10  2  0
 10 11  1  0
 11 12  1  0
 12 13  2  0
 13 14  1  0
 14 15  1  0
 15 16  2  0
 16 17  1  0
 17 18  1  0
 17 19  2  0
 19 20  1  0
 20 21  2  0
 21 22  1  0
 22 23  2  0
  8  3  1  0
 13  9  1  0
 21 15  1  0
 22 12  1  0
  1 24  1  0
  1 25  1  0
  1 26  1  0
  4 27  1  0
  5 28  1  0
  7 29  1  0
  8 30  1  0
 10 31  1  0
 16 32  1  0
 19 33  1  0
 20 34  1  0
M  END
$$$$
[H]c1nc(N([H])[H])n(-c2c([H])c([H])c([H])c([H])c2[H])c1-c1nc2c(c(C([H])([H])[H])nn2C([H])(C([H])([H])[H])C([H])([H])[H])c(=O)n1[H]
     RDKit          3D

 45 48  0  0  0  0  0  0  0  0999 V2000
   -4.2911   -1.5899    0.7948 C   0  0  0  0  0  0  0  0  0  0  0  0
   -4.3894   -0.4918   -0.2233 C   0  0  0  0  0  0  0  0  0  0  0  0
   -4.0822   -0.9863   -1.6179 C   0  0  0  0  0  0  0  0  0  0  0  0
   -3.5189    0.6377    0.1198 N   0  0  0  0  0  0  0  0  0  0  0  0
   -3.8501    1.8928    0.3532 N   0  0  0  0  0  0  0  0  0  0  0  0
   -2.7730    2.6345    0.6359 C   0  0  0  0  0  0  0  0  0  0  0  0
   -2.7184    4.1014    0.9590 C   0  0  0  0  0  0  0  0  0  0  0  0
   -1.7057    1.7891    0.5748 C   0  0  0  0  0  0  0  0  0  0  0  0
   -2.1793    0.5217    0.2471 C   0  0  0  0  0  0  0  0  0  0  0  0
   -1.2925   -0.4551    0.1356 N   0  0  0  0  0  0  0  0  0  0  0  0
    0.0429   -0.2674    0.3267 C   0  0  0  0  0  0  0  0  0  0  0  0
    0.4780    0.9374    0.6382 N   0  0  0  0  0  0  0  0  0  0  0  0
   -0.3696    2.0056    0.7733 C   0  0  0  0  0  0  0  0  0  0  0  0
    0.1578    3.1016    1.0704 O   0  0  0  0  0  0  0  0  0  0  0  0
    0.9224   -1.4297    0.1119 C   0  0  0  0  0  0  0  0  0  0  0  0
    0.4300   -2.7568    0.0259 C   0  0  0  0  0  0  0  0  0  0  0  0
    1.4477   -3.5878   -0.2141 N   0  0  0  0  0  0  0  0  0  0  0  0
    2.5650   -2.8833   -0.2891 C   0  0  0  0  0  0  0  0  0  0  0  0
    3.9078   -3.3297   -0.5292 N   0  0  0  0  0  0  0  0  0  0  0  0
    2.2209   -1.5616   -0.0872 N   0  0  0  0  0  0  0  0  0  0  0  0
    3.2259   -0.5512   -0.1494 C   0  0  0  0  0  0  0  0  0  0  0  0
    3.3334    0.1712   -1.3343 C   0  0  0  0  0  0  0  0  0  0  0  0
    4.3050    1.1335   -1.4943 C   0  0  0  0  0  0  0  0  0  0  0  0
    5.1610    1.3605   -0.4592 C   0  0  0  0  0  0  0  0  0  0  0  0
    5.0843    0.6621    0.7329 C   0  0  0  0  0  0  0  0  0  0  0  0
    4.1185   -0.2850    0.8741 C   0  0  0  0  0  0  0  0  0  0  0  0
   -4.3776   -1.1715    1.8032 H   0  0  0  0  0  0  0  0  0  0  0  0
   -5.1506   -2.2836    0.6033 H   0  0  0  0  0  0  0  0  0  0  0  0
   -3.3117   -2.1020    0.7039 H   0  0  0  0  0  0  0  0  0  0  0  0
   -5.4424   -0.1401   -0.2300 H   0  0  0  0  0  0  0  0  0  0  0  0
   -3.0623   -1.4117   -1.6857 H   0  0  0  0  0  0  0  0  0  0  0  0
   -4.2501   -0.1465   -2.3260 H   0  0  0  0  0  0  0  0  0  0  0  0
   -4.8153   -1.7815   -1.8544 H   0  0  0  0  0  0  0  0  0  0  0  0
   -3.6155    4.5426    0.4557 H   0  0  0  0  0  0  0  0  0  0  0  0
   -2.8590    4.1910    2.0599 H   0  0  0  0  0  0  0  0  0  0  0  0
   -1.7826    4.5563    0.6246 H   0  0  0  0  0  0  0  0  0  0  0  0
    1.4953    1.1194    0.8218 H   0  0  0  0  0  0  0  0  0  0  0  0
   -0.6079   -2.9956    0.1455 H   0  0  0  0  0  0  0  0  0  0  0  0
    4.3843   -3.9831    0.1475 H   0  0  0  0  0  0  0  0  0  0  0  0
    4.3982   -2.9995   -1.3764 H   0  0  0  0  0  0  0  0  0  0  0  0
    2.6603   -0.0017   -2.1589 H   0  0  0  0  0  0  0  0  0  0  0  0
    4.3636    1.6829   -2.4351 H   0  0  0  0  0  0  0  0  0  0  0  0
    5.9248    2.1336   -0.6164 H   0  0  0  0  0  0  0  0  0  0  0  0
    5.7849    0.8638    1.5501 H   0  0  0  0  0  0  0  0  0  0  0  0
    4.0332   -0.8463    1.7917 H   0  0  0  0  0  0  0  0  0  0  0  0
  1  2  1  0
  2  3  1  0
  2  4  1  0
  4  5  1  0
  5  6  2  0
  6  7  1  0
  6  8  1  0
  8  9  2  0
  9 10  1  0
 10 11  2  0
 11 12  1  0
 12 13  1  0
 13 14  2  0
 11 15  1  0
 15 16  2  0
 16 17  1  0
 17 18  2  0
 18 19  1  0
 18 20  1  0
 20 21  1  0
 21 22  2  0
 22 23  1  0
 23 24  2  0
 24 25  1  0
 25 26  2  0
  9  4  1  0
 20 15  1  0
 26 21  1  0
 13  8  1  0
  1 27  1  0
  1 28  1  0
  1 29  1  0
  2 30  1  0
  3 31  1  0
  3 32  1  0
  3 33  1  0
  7 34  1  0
  7 35  1  0
  7 36  1  0
 12 37  1  0
 16 38  1  0
 19 39  1  0
 19 40  1  0
 22 41  1  0
 23 42  1  0
 24 43  1  0
 25 44  1  0
 26 45  1  0
M  END
$$$$
[H]Oc1c([H])c([H])c([H])c(C2(c3c([H])c([H])c([H])c([H])c3[H])C([H])([H])N(C(=O)C([H])([H])[H])C2([H])[H])c1[H]
     RDKit          3D

 37 39  0  0  0  0  0  0  0  0999 V2000
    3.7722   -1.8224    0.4039 C   0  0  0  0  0  0  0  0  0  0  0  0
    3.1913   -0.8883   -0.5823 C   0  0  0  0  0  0  0  0  0  0  0  0
    3.6270   -0.8669   -1.7504 O   0  0  0  0  0  0  0  0  0  0  0  0
    2.1529   -0.0295   -0.2048 N   0  0  0  0  0  0  0  0  0  0  0  0
    1.3536    0.2928    0.9907 C   0  0  0  0  0  0  0  0  0  0  0  0
    0.2128    0.5136    0.0244 C   0  0  0  0  0  0  0  0  0  0  0  0
    1.3500    0.9851   -0.8593 C   0  0  0  0  0  0  0  0  0  0  0  0
   -0.7038    1.6151    0.2903 C   0  0  0  0  0  0  0  0  0  0  0  0
   -1.4085    1.8395    1.4402 C   0  0  0  0  0  0  0  0  0  0  0  0
   -2.2531    2.9132    1.5904 C   0  0  0  0  0  0  0  0  0  0  0  0
   -2.4038    3.8031    0.5519 C   0  0  0  0  0  0  0  0  0  0  0  0
   -1.7132    3.6229   -0.6354 C   0  0  0  0  0  0  0  0  0  0  0  0
   -0.8848    2.5444   -0.7446 C   0  0  0  0  0  0  0  0  0  0  0  0
   -0.3955   -0.7738   -0.3507 C   0  0  0  0  0  0  0  0  0  0  0  0
   -0.3281   -1.2893   -1.6227 C   0  0  0  0  0  0  0  0  0  0  0  0
   -0.9167   -2.4889   -1.8979 C   0  0  0  0  0  0  0  0  0  0  0  0
   -1.5881   -3.2314   -0.9632 C   0  0  0  0  0  0  0  0  0  0  0  0
   -1.6511   -2.7068    0.3117 C   0  0  0  0  0  0  0  0  0  0  0  0
   -2.3407   -3.4750    1.2621 O   0  0  0  0  0  0  0  0  0  0  0  0
   -1.0612   -1.4925    0.6126 C   0  0  0  0  0  0  0  0  0  0  0  0
    2.9044   -2.1991    1.0082 H   0  0  0  0  0  0  0  0  0  0  0  0
    4.2961   -2.6727   -0.0818 H   0  0  0  0  0  0  0  0  0  0  0  0
    4.4573   -1.2480    1.0562 H   0  0  0  0  0  0  0  0  0  0  0  0
    1.3027   -0.5876    1.6235 H   0  0  0  0  0  0  0  0  0  0  0  0
    1.7582    1.1772    1.4759 H   0  0  0  0  0  0  0  0  0  0  0  0
    1.2103    0.9202   -1.9255 H   0  0  0  0  0  0  0  0  0  0  0  0
    1.6713    1.9823   -0.5304 H   0  0  0  0  0  0  0  0  0  0  0  0
   -1.2821    1.1417    2.2459 H   0  0  0  0  0  0  0  0  0  0  0  0
   -2.8196    3.0952    2.5080 H   0  0  0  0  0  0  0  0  0  0  0  0
   -3.0557    4.6583    0.6262 H   0  0  0  0  0  0  0  0  0  0  0  0
   -1.8395    4.3338   -1.4508 H   0  0  0  0  0  0  0  0  0  0  0  0
   -0.3526    2.4281   -1.6946 H   0  0  0  0  0  0  0  0  0  0  0  0
    0.1753   -0.7722   -2.4036 H   0  0  0  0  0  0  0  0  0  0  0  0
   -0.8510   -2.8809   -2.9125 H   0  0  0  0  0  0  0  0  0  0  0  0
   -2.0233   -4.1707   -1.2672 H   0  0  0  0  0  0  0  0  0  0  0  0
   -2.4061   -3.1158    2.2146 H   0  0  0  0  0  0  0  0  0  0  0  0
   -1.1569   -1.1547    1.6408 H   0  0  0  0  0  0  0  0  0  0  0  0
  1  2  1  0
  2  3  2  0
  2  4  1  0
  4  5  1  0
  5  6  1  0
  6  7  1  0
  6  8  1  0
  8  9  2  0
  9 10  1  0
 10 11  2  0
 11 12  1  0
 12 13  2  0
  6 14  1  0
 14 15  2  0
 15 16  1  0
 16 17  2  0
 17 18  1  0
 18 19  1  0
 18 20  2  0
  7  4  1  0
 13  8  1  0
 20 14  1  0
  1 21  1  0
  1 22  1  0
  1 23  1  0
  5 24  1  0
  5 25  1  0
  7 26  1  0
  7 27  1  0
  9 28  1  0
 10 29  1  0
 11 30  1  0
 12 31  1  0
 13 32  1  0
 15 33  1  0
 16 34  1  0
 17 35  1  0
 19 36  1  0
 20 37  1  0
M  END
$$$$
[H]OC1(C([H])([H])N2C(=O)N(C3([H])C([H])([H])C3([H])[H])C([H])([H])[C@]2([H])c2c([H])sc([H])c2[H])C([H])([H])c2c([H])c([H])c([H])c([H])c2C1([H])[H]
     RDKit          3D

 47 51  0  0  0  0  0  0  0  0999 V2000
    1.5669   -1.1127   -1.2666 O   0  0  0  0  0  0  0  0  0  0  0  0
    1.5578   -0.5342   -0.0032 C   0  0  0  0  0  0  0  0  0  0  0  0
    0.3530   -0.8606    0.7994 C   0  0  0  0  0  0  0  0  0  0  0  0
   -0.8939   -0.4544    0.2267 N   0  0  0  0  0  0  0  0  0  0  0  0
   -1.7342   -1.2026   -0.6535 C   0  0  2  0  0  0  0  0  0  0  0  0
   -2.5632   -0.1718   -1.3389 C   0  0  0  0  0  0  0  0  0  0  0  0
   -2.5221    1.0375   -0.5396 N   0  0  0  0  0  0  0  0  0  0  0  0
   -3.3371    2.2086   -0.7323 C   0  0  0  0  0  0  0  0  0  0  0  0
   -3.8679    2.9308    0.4989 C   0  0  0  0  0  0  0  0  0  0  0  0
   -2.8420    3.5549   -0.3455 C   0  0  0  0  0  0  0  0  0  0  0  0
   -1.5220    0.8029    0.4462 C   0  0  0  0  0  0  0  0  0  0  0  0
   -1.2924    1.6593    1.3601 O   0  0  0  0  0  0  0  0  0  0  0  0
   -2.5885   -2.2075    0.1062 C   0  0  0  0  0  0  0  0  0  0  0  0
   -2.7644   -3.4765   -0.2779 C   0  0  0  0  0  0  0  0  0  0  0  0
   -3.5598   -4.2737    0.5009 C   0  0  0  0  0  0  0  0  0  0  0  0
   -4.0399   -3.2210    1.7519 S   0  0  0  0  0  0  0  0  0  0  0  0
   -3.2246   -1.8092    1.2563 C   0  0  0  0  0  0  0  0  0  0  0  0
    2.7657   -1.1323    0.7323 C   0  0  0  0  0  0  0  0  0  0  0  0
    3.8762   -0.2441    0.2990 C   0  0  0  0  0  0  0  0  0  0  0  0
    5.2377   -0.4625    0.3431 C   0  0  0  0  0  0  0  0  0  0  0  0
    6.1474    0.4679   -0.1012 C   0  0  0  0  0  0  0  0  0  0  0  0
    5.6332    1.6414   -0.5980 C   0  0  0  0  0  0  0  0  0  0  0  0
    4.2767    1.8849   -0.6534 C   0  0  0  0  0  0  0  0  0  0  0  0
    3.3910    0.9366   -0.2021 C   0  0  0  0  0  0  0  0  0  0  0  0
    1.8865    0.9115   -0.1335 C   0  0  0  0  0  0  0  0  0  0  0  0
    1.4632   -2.0862   -1.1508 H   0  0  0  0  0  0  0  0  0  0  0  0
    0.4864   -0.4067    1.8097 H   0  0  0  0  0  0  0  0  0  0  0  0
    0.3556   -1.9652    0.9790 H   0  0  0  0  0  0  0  0  0  0  0  0
   -1.1195   -1.7102   -1.4202 H   0  0  0  0  0  0  0  0  0  0  0  0
   -2.2595    0.0171   -2.3909 H   0  0  0  0  0  0  0  0  0  0  0  0
   -3.6341   -0.5240   -1.2927 H   0  0  0  0  0  0  0  0  0  0  0  0
   -4.0508    2.1812   -1.5574 H   0  0  0  0  0  0  0  0  0  0  0  0
   -3.6392    2.4060    1.4496 H   0  0  0  0  0  0  0  0  0  0  0  0
   -4.9153    3.3170    0.4774 H   0  0  0  0  0  0  0  0  0  0  0  0
   -3.1991    4.4371   -0.9506 H   0  0  0  0  0  0  0  0  0  0  0  0
   -1.7892    3.6225   -0.0449 H   0  0  0  0  0  0  0  0  0  0  0  0
   -2.2902   -3.8930   -1.1964 H   0  0  0  0  0  0  0  0  0  0  0  0
   -3.7983   -5.3367    0.3151 H   0  0  0  0  0  0  0  0  0  0  0  0
   -3.2093   -0.8159    1.7389 H   0  0  0  0  0  0  0  0  0  0  0  0
    2.9087   -2.1830    0.4187 H   0  0  0  0  0  0  0  0  0  0  0  0
    2.6585   -1.0008    1.8223 H   0  0  0  0  0  0  0  0  0  0  0  0
    5.6130   -1.4144    0.7477 H   0  0  0  0  0  0  0  0  0  0  0  0
    7.2133    0.3413   -0.0862 H   0  0  0  0  0  0  0  0  0  0  0  0
    6.3174    2.4185   -0.9662 H   0  0  0  0  0  0  0  0  0  0  0  0
    3.9113    2.8458   -1.0623 H   0  0  0  0  0  0  0  0  0  0  0  0
    1.5122    1.3308   -1.0895 H   0  0  0  0  0  0  0  0  0  0  0  0
    1.5245    1.5456    0.7000 H   0  0  0  0  0  0  0  0  0  0  0  0
  1  2  1  0
  2  3  1  0
  3  4  1  0
  4  5  1  0
  5  6  1  0
  6  7  1  0
  7  8  1  0
  8  9  1  0
  9 10  1  0
  7 11  1  0
 11 12  2  0
  5 13  1  0
 13 14  1  0
 14 15  2  0
 15 16  1  0
 16 17  1  0
  2 18  1  0
 18 19  1  0
 19 20  2  0
 20 21  1  0
 21 22  2  0
 22 23  1  0
 23 24  2  0
 24 25  1  0
 25  2  1  0
 11  4  1  0
 17 13  2  0
 24 19  1  0
 10  8  1  0
  1 26  1  0
  3 27  1  0
  3 28  1  0
  5 29  1  6
  6 30  1  0
  6 31  1  0
  8 32  1  0
  9 33  1  0
  9 34  1  0
 10 35  1  0
 10 36  1  0
 14 37  1  0
 15 38  1  0
 17 39  1  0
 18 40  1  0
 18 41  1  0
 20 42  1  0
 21 43  1  0
 22 44  1  0
 23 45  1  0
 25 46  1  0
 25 47  1  0
M  END
$$$$
[H]c1nc(C2([H])C([H])([H])C2([H])[H])c([H])c(C(=O)N([H])c2c([H])nc(C([H])([H])[H])c(-c3c([H])c(N4C([H])([H])C([H])([H])OC([H])([H])C4([H])[H])n(C([H])([H])[H])c(=O)c3[H])c2[H])c1[H]
     RDKit          3D

 60 64  0  0  0  0  0  0  0  0999 V2000
   -2.3429   -0.4078    3.3365 C   0  0  0  0  0  0  0  0  0  0  0  0
   -0.9482   -0.2610    2.8499 C   0  0  0  0  0  0  0  0  0  0  0  0
    0.0986   -0.6686    3.6191 N   0  0  0  0  0  0  0  0  0  0  0  0
    1.3718   -0.5208    3.1813 C   0  0  0  0  0  0  0  0  0  0  0  0
    1.6965    0.0337    1.9670 C   0  0  0  0  0  0  0  0  0  0  0  0
    2.9922    0.2356    1.4606 N   0  0  0  0  0  0  0  0  0  0  0  0
    4.2082    0.1772    2.1411 C   0  0  0  0  0  0  0  0  0  0  0  0
    4.2660   -0.0756    3.3681 O   0  0  0  0  0  0  0  0  0  0  0  0
    5.4968    0.4086    1.4674 C   0  0  0  0  0  0  0  0  0  0  0  0
    6.5818    0.7713    2.2209 C   0  0  0  0  0  0  0  0  0  0  0  0
    7.8308    1.0022    1.6232 C   0  0  0  0  0  0  0  0  0  0  0  0
    7.9002    0.8478    0.2797 N   0  0  0  0  0  0  0  0  0  0  0  0
    6.8533    0.4922   -0.4852 C   0  0  0  0  0  0  0  0  0  0  0  0
    5.6129    0.2630    0.1078 C   0  0  0  0  0  0  0  0  0  0  0  0
    7.0379    0.3473   -1.9606 C   0  0  0  0  0  0  0  0  0  0  0  0
    6.6686   -0.9916   -2.5728 C   0  0  0  0  0  0  0  0  0  0  0  0
    5.8998    0.2839   -2.8845 C   0  0  0  0  0  0  0  0  0  0  0  0
    0.6074    0.4436    1.1961 C   0  0  0  0  0  0  0  0  0  0  0  0
   -0.7003    0.2995    1.6285 C   0  0  0  0  0  0  0  0  0  0  0  0
   -1.7898    0.7486    0.7300 C   0  0  0  0  0  0  0  0  0  0  0  0
   -2.8324   -0.0489    0.3781 C   0  0  0  0  0  0  0  0  0  0  0  0
   -3.8818    0.3834   -0.4819 C   0  0  0  0  0  0  0  0  0  0  0  0
   -4.9148   -0.5232   -0.7540 N   0  0  0  0  0  0  0  0  0  0  0  0
   -5.8239   -0.4643   -1.8490 C   0  0  0  0  0  0  0  0  0  0  0  0
   -6.2377   -1.9519   -2.0792 C   0  0  0  0  0  0  0  0  0  0  0  0
   -5.1441   -2.7718   -1.9467 O   0  0  0  0  0  0  0  0  0  0  0  0
   -4.6904   -2.8709   -0.6331 C   0  0  0  0  0  0  0  0  0  0  0  0
   -5.1629   -1.6775    0.1454 C   0  0  0  0  0  0  0  0  0  0  0  0
   -3.8525    1.6207   -0.9686 N   0  0  0  0  0  0  0  0  0  0  0  0
   -4.8641    2.2165   -1.8266 C   0  0  0  0  0  0  0  0  0  0  0  0
   -2.8040    2.4279   -0.6180 C   0  0  0  0  0  0  0  0  0  0  0  0
   -2.7886    3.5976   -1.0882 O   0  0  0  0  0  0  0  0  0  0  0  0
   -1.7823    2.0262    0.2107 C   0  0  0  0  0  0  0  0  0  0  0  0
   -2.3809   -0.3073    4.4630 H   0  0  0  0  0  0  0  0  0  0  0  0
   -2.7932   -1.3856    3.0941 H   0  0  0  0  0  0  0  0  0  0  0  0
   -3.0150    0.3892    2.9754 H   0  0  0  0  0  0  0  0  0  0  0  0
    2.1355   -0.8716    3.8349 H   0  0  0  0  0  0  0  0  0  0  0  0
    3.0544    0.4606    0.4183 H   0  0  0  0  0  0  0  0  0  0  0  0
    6.4521    0.8739    3.2870 H   0  0  0  0  0  0  0  0  0  0  0  0
    8.6683    1.2866    2.2302 H   0  0  0  0  0  0  0  0  0  0  0  0
    4.7856   -0.0204   -0.5073 H   0  0  0  0  0  0  0  0  0  0  0  0
    8.0044    0.7222   -2.3820 H   0  0  0  0  0  0  0  0  0  0  0  0
    6.2087   -1.7610   -1.9315 H   0  0  0  0  0  0  0  0  0  0  0  0
    7.2349   -1.3874   -3.4162 H   0  0  0  0  0  0  0  0  0  0  0  0
    6.0168    0.7240   -3.9132 H   0  0  0  0  0  0  0  0  0  0  0  0
    4.8504    0.2253   -2.5844 H   0  0  0  0  0  0  0  0  0  0  0  0
    0.7976    0.8879    0.2318 H   0  0  0  0  0  0  0  0  0  0  0  0
   -2.8504   -1.0484    0.7614 H   0  0  0  0  0  0  0  0  0  0  0  0
   -5.4065   -0.1583   -2.8083 H   0  0  0  0  0  0  0  0  0  0  0  0
   -6.7977    0.0009   -1.5770 H   0  0  0  0  0  0  0  0  0  0  0  0
   -7.1045   -2.2118   -1.4644 H   0  0  0  0  0  0  0  0  0  0  0  0
   -6.5799   -1.9874   -3.1317 H   0  0  0  0  0  0  0  0  0  0  0  0
   -3.5803   -2.8321   -0.6618 H   0  0  0  0  0  0  0  0  0  0  0  0
   -4.9670   -3.8229   -0.1871 H   0  0  0  0  0  0  0  0  0  0  0  0
   -4.7288   -1.5664    1.1250 H   0  0  0  0  0  0  0  0  0  0  0  0
   -6.2798   -1.7332    0.3155 H   0  0  0  0  0  0  0  0  0  0  0  0
   -4.6830    2.0010   -2.8801 H   0  0  0  0  0  0  0  0  0  0  0  0
   -5.8971    2.0960   -1.4610 H   0  0  0  0  0  0  0  0  0  0  0  0
   -4.7515    3.3638   -1.7777 H   0  0  0  0  0  0  0  0  0  0  0  0
   -0.9552    2.6687    0.4849 H   0  0  0  0  0  0  0  0  0  0  0  0
  1  2  1  0
  2  3  2  0
  3  4  1  0
  4  5  2  0
  5  6  1  0
  6  7  1  0
  7  8  2  0
  7  9  1  0
  9 10  2  0
 10 11  1  0
 11 12  2  0
 12 13  1  0
 13 14  2  0
 13 15  1  0
 15 16  1  0
 16 17  1  0
  5 18  1  0
 18 19  2  0
 19 20  1  0
 20 21  1  0
 21 22  2  0
 22 23  1  0
 23 24  1  0
 24 25  1  0
 25 26  1  0
 26 27  1  0
 27 28  1  0
 22 29  1  0
 29 30  1  0
 29 31  1  0
 31 32  2  0
 31 33  1  0
 19  2  1  0
 33 20  2  0
 14  9  1  0
 17 15  1  0
 28 23  1  0
  1 34  1  0
  1 35  1  0
  1 36  1  0
  4 37  1  0
  6 38  1  0
 10 39  1  0
 11 40  1  0
 14 41  1  0
 15 42  1  0
 16 43  1  0
 16 44  1  0
 17 45  1  0
 17 46  1  0
 18 47  1  0
 21 48  1  0
 24 49  1  0
 24 50  1  0
 25 51  1  0
 25 52  1  0
 27 53  1  0
 27 54  1  0
 28 55  1  0
 28 56  1  0
 30 57  1  0
 30 58  1  0
 30 59  1  0
 33 60  1  0
M  END
$$$$
[H]OC(=O)c1nc([H])c(N([H])C(=O)c2c([H])c(OC([H])([H])c3c([H])c([H])c(F)c([H])c3C([H])([H])[H])c([H])c(O[C@@]([H])(C([H])([H])[H])C([H])([H])OC([H])([H])[H])c2[H])nc1[H]
     RDKit          3D

 58 60  0  0  0  0  0  0  0  0999 V2000
    0.2426    6.7244   -0.5796 C   0  0  0  0  0  0  0  0  0  0  0  0
   -0.3837    5.7447   -1.2814 O   0  0  0  0  0  0  0  0  0  0  0  0
   -1.3959    5.0573   -0.7046 C   0  0  0  0  0  0  0  0  0  0  0  0
   -1.0819    4.2858    0.5546 C   0  0  2  0  0  0  0  0  0  0  0  0
   -0.7731    5.1485    1.7450 C   0  0  0  0  0  0  0  0  0  0  0  0
   -0.0694    3.3850    0.2574 O   0  0  0  0  0  0  0  0  0  0  0  0
   -0.1682    2.0315    0.2452 C   0  0  0  0  0  0  0  0  0  0  0  0
   -1.3337    1.3688    0.5393 C   0  0  0  0  0  0  0  0  0  0  0  0
   -1.4054   -0.0238    0.5187 C   0  0  0  0  0  0  0  0  0  0  0  0
   -2.5969   -0.6376    0.8213 O   0  0  0  0  0  0  0  0  0  0  0  0
   -2.6711   -2.0287    0.8012 C   0  0  0  0  0  0  0  0  0  0  0  0
   -4.0019   -2.5606    1.1441 C   0  0  0  0  0  0  0  0  0  0  0  0
   -5.0324   -1.6937    1.4470 C   0  0  0  0  0  0  0  0  0  0  0  0
   -6.2546   -2.2211    1.7612 C   0  0  0  0  0  0  0  0  0  0  0  0
   -6.4270   -3.6097    1.7674 C   0  0  0  0  0  0  0  0  0  0  0  0
   -7.6593   -4.0756    2.0861 F   0  0  0  0  0  0  0  0  0  0  0  0
   -5.4016   -4.4661    1.4662 C   0  0  0  0  0  0  0  0  0  0  0  0
   -4.1627   -3.9316    1.1478 C   0  0  0  0  0  0  0  0  0  0  0  0
   -2.9938   -4.8153    0.8070 C   0  0  0  0  0  0  0  0  0  0  0  0
   -0.2917   -0.7277    0.1993 C   0  0  0  0  0  0  0  0  0  0  0  0
    0.9276   -0.1258   -0.1110 C   0  0  0  0  0  0  0  0  0  0  0  0
    0.9326    1.2430   -0.0731 C   0  0  0  0  0  0  0  0  0  0  0  0
    2.0992   -0.9440   -0.4441 C   0  0  0  0  0  0  0  0  0  0  0  0
    1.9757   -2.1667   -0.1500 O   0  0  0  0  0  0  0  0  0  0  0  0
    3.2380   -0.3868   -1.0360 N   0  0  0  0  0  0  0  0  0  0  0  0
    4.4364   -1.0397   -1.4133 C   0  0  0  0  0  0  0  0  0  0  0  0
    4.7015   -2.3719   -1.2624 C   0  0  0  0  0  0  0  0  0  0  0  0
    5.8839   -2.9255   -1.6520 N   0  0  0  0  0  0  0  0  0  0  0  0
    6.8564   -2.1860   -2.2082 C   0  0  0  0  0  0  0  0  0  0  0  0
    6.6040   -0.8342   -2.3683 C   0  0  0  0  0  0  0  0  0  0  0  0
    5.4409   -0.2987   -1.9833 N   0  0  0  0  0  0  0  0  0  0  0  0
    8.1233   -2.7575   -2.6301 C   0  0  0  0  0  0  0  0  0  0  0  0
    8.3701   -4.1026   -2.4692 O   0  0  0  0  0  0  0  0  0  0  0  0
    8.9958   -2.0284   -3.1418 O   0  0  0  0  0  0  0  0  0  0  0  0
   -0.4294    7.5412   -0.2272 H   0  0  0  0  0  0  0  0  0  0  0  0
    0.9105    7.2625   -1.3392 H   0  0  0  0  0  0  0  0  0  0  0  0
    0.9435    6.3355    0.1529 H   0  0  0  0  0  0  0  0  0  0  0  0
   -1.7202    4.2686   -1.4489 H   0  0  0  0  0  0  0  0  0  0  0  0
   -2.3350    5.6685   -0.5675 H   0  0  0  0  0  0  0  0  0  0  0  0
   -2.0741    3.7851    0.8066 H   0  0  0  0  0  0  0  0  0  0  0  0
   -1.3260    4.7214    2.6328 H   0  0  0  0  0  0  0  0  0  0  0  0
    0.2971    5.0880    2.0656 H   0  0  0  0  0  0  0  0  0  0  0  0
   -1.1497    6.1633    1.6235 H   0  0  0  0  0  0  0  0  0  0  0  0
   -2.2578    1.8711    0.8018 H   0  0  0  0  0  0  0  0  0  0  0  0
   -2.3177   -2.3706   -0.1955 H   0  0  0  0  0  0  0  0  0  0  0  0
   -1.9625   -2.4144    1.5822 H   0  0  0  0  0  0  0  0  0  0  0  0
   -4.8682   -0.6312    1.4334 H   0  0  0  0  0  0  0  0  0  0  0  0
   -7.0743   -1.5490    2.0015 H   0  0  0  0  0  0  0  0  0  0  0  0
   -5.5294   -5.5359    1.4696 H   0  0  0  0  0  0  0  0  0  0  0  0
   -2.2020   -4.7300    1.5766 H   0  0  0  0  0  0  0  0  0  0  0  0
   -3.3053   -5.8340    0.5854 H   0  0  0  0  0  0  0  0  0  0  0  0
   -2.5570   -4.3953   -0.1421 H   0  0  0  0  0  0  0  0  0  0  0  0
   -0.3582   -1.8074    0.1864 H   0  0  0  0  0  0  0  0  0  0  0  0
    1.8300    1.7771   -0.2951 H   0  0  0  0  0  0  0  0  0  0  0  0
    3.1791    0.6692   -1.2208 H   0  0  0  0  0  0  0  0  0  0  0  0
    3.9924   -3.0387   -0.8317 H   0  0  0  0  0  0  0  0  0  0  0  0
    7.4018   -0.2429   -2.8216 H   0  0  0  0  0  0  0  0  0  0  0  0
    8.1887   -4.6319   -1.6295 H   0  0  0  0  0  0  0  0  0  0  0  0
  1  2  1  0
  2  3  1  0
  3  4  1  0
  4  5  1  0
  4  6  1  0
  6  7  1  0
  7  8  2  0
  8  9  1  0
  9 10  1  0
 10 11  1  0
 11 12  1  0
 12 13  2  0
 13 14  1  0
 14 15  2  0
 15 16  1  0
 15 17  1  0
 17 18  2  0
 18 19  1  0
  9 20  2  0
 20 21  1  0
 21 22  2  0
 21 23  1  0
 23 24  2  0
 23 25  1  0
 25 26  1  0
 26 27  2  0
 27 28  1  0
 28 29  2  0
 29 30  1  0
 30 31  2  0
 29 32  1  0
 32 33  1  0
 32 34  2  0
 22  7  1  0
 31 26  1  0
 18 12  1  0
  1 35  1  0
  1 36  1  0
  1 37  1  0
  3 38  1  0
  3 39  1  0
  4 40  1  1
  5 41  1  0
  5 42  1  0
  5 43  1  0
  8 44  1  0
 11 45  1  0
 11 46  1  0
 13 47  1  0
 14 48  1  0
 17 49  1  0
 19 50  1  0
 19 51  1  0
 19 52  1  0
 20 53  1  0
 22 54  1  0
 25 55  1  0
 27 56  1  0
 30 57  1  0
 33 58  1  0
M  END
$$$$
[H]c1nc([H])c(C([H])([H])[H])c([H])c1-c1c([H])c(C2([H])C([H])([H])C2([H])c2c(F)c([H])c([H])c(C([H])([H])[H])c2F)c([H])c(=O)n1C([H])([H])[H]
     RDKit          3D

 47 50  0  0  0  0  0  0  0  0999 V2000
    6.9115    1.1804    0.8483 C   0  0  0  0  0  0  0  0  0  0  0  0
    5.6224    1.3386    0.1209 C   0  0  0  0  0  0  0  0  0  0  0  0
    5.4631    2.4691   -0.7065 C   0  0  0  0  0  0  0  0  0  0  0  0
    4.3354    2.5837   -1.3499 N   0  0  0  0  0  0  0  0  0  0  0  0
    3.3458    1.6600   -1.2308 C   0  0  0  0  0  0  0  0  0  0  0  0
    3.4507    0.5517   -0.4427 C   0  0  0  0  0  0  0  0  0  0  0  0
    4.6308    0.3939    0.2525 C   0  0  0  0  0  0  0  0  0  0  0  0
    2.3377   -0.4051   -0.3534 C   0  0  0  0  0  0  0  0  0  0  0  0
    1.0667    0.0946   -0.1560 C   0  0  0  0  0  0  0  0  0  0  0  0
   -0.0908   -0.6881   -0.0252 C   0  0  0  0  0  0  0  0  0  0  0  0
    0.1011   -2.0509   -0.1039 C   0  0  0  0  0  0  0  0  0  0  0  0
    1.3790   -2.5338   -0.3048 C   0  0  0  0  0  0  0  0  0  0  0  0
    1.5435   -3.7610   -0.3802 O   0  0  0  0  0  0  0  0  0  0  0  0
    2.4738   -1.7237   -0.4272 N   0  0  0  0  0  0  0  0  0  0  0  0
    3.7947   -2.3414   -0.6239 C   0  0  0  0  0  0  0  0  0  0  0  0
   -1.3239    0.0355    0.1994 C   0  0  0  0  0  0  0  0  0  0  0  0
   -1.5787    0.1971    1.7412 C   0  0  0  0  0  0  0  0  0  0  0  0
   -2.5793   -0.2851    0.8360 C   0  0  0  0  0  0  0  0  0  0  0  0
   -3.9068    0.1686    0.4758 C   0  0  0  0  0  0  0  0  0  0  0  0
   -4.5599    1.1681    1.2379 C   0  0  0  0  0  0  0  0  0  0  0  0
   -3.8536    1.7732    2.2181 F   0  0  0  0  0  0  0  0  0  0  0  0
   -5.8477    1.5544    1.0401 C   0  0  0  0  0  0  0  0  0  0  0  0
   -6.6102    0.9827    0.0740 C   0  0  0  0  0  0  0  0  0  0  0  0
   -6.0303   -0.0166   -0.7157 C   0  0  0  0  0  0  0  0  0  0  0  0
   -6.9355   -0.6582   -1.6898 C   0  0  0  0  0  0  0  0  0  0  0  0
   -4.7099   -0.3924   -0.5022 C   0  0  0  0  0  0  0  0  0  0  0  0
   -4.1872   -1.3983   -1.2888 F   0  0  0  0  0  0  0  0  0  0  0  0
    7.4273    2.1497    0.9327 H   0  0  0  0  0  0  0  0  0  0  0  0
    7.6104    0.5643    0.2225 H   0  0  0  0  0  0  0  0  0  0  0  0
    6.7608    0.6992    1.8484 H   0  0  0  0  0  0  0  0  0  0  0  0
    6.2569    3.1889   -0.7761 H   0  0  0  0  0  0  0  0  0  0  0  0
    2.4364    1.8684   -1.8234 H   0  0  0  0  0  0  0  0  0  0  0  0
    4.8178   -0.4432    0.9045 H   0  0  0  0  0  0  0  0  0  0  0  0
    0.9788    1.2009   -0.1139 H   0  0  0  0  0  0  0  0  0  0  0  0
   -0.7367   -2.6953   -0.0255 H   0  0  0  0  0  0  0  0  0  0  0  0
    4.1809   -2.6740    0.3444 H   0  0  0  0  0  0  0  0  0  0  0  0
    4.4686   -1.7644   -1.2389 H   0  0  0  0  0  0  0  0  0  0  0  0
    3.5529   -3.2889   -1.1676 H   0  0  0  0  0  0  0  0  0  0  0  0
   -1.3080    1.0501   -0.3236 H   0  0  0  0  0  0  0  0  0  0  0  0
   -0.9894   -0.5452    2.3775 H   0  0  0  0  0  0  0  0  0  0  0  0
   -1.4513    1.2277    2.1763 H   0  0  0  0  0  0  0  0  0  0  0  0
   -2.6638   -1.4845    0.9107 H   0  0  0  0  0  0  0  0  0  0  0  0
   -6.2673    2.3261    1.6515 H   0  0  0  0  0  0  0  0  0  0  0  0
   -7.6387    1.2959   -0.0782 H   0  0  0  0  0  0  0  0  0  0  0  0
   -7.9514   -0.8461   -1.2029 H   0  0  0  0  0  0  0  0  0  0  0  0
   -6.5583   -1.6625   -2.0525 H   0  0  0  0  0  0  0  0  0  0  0  0
   -7.1682   -0.0638   -2.5836 H   0  0  0  0  0  0  0  0  0  0  0  0
  1  2  1  0
  2  3  2  0
  3  4  1  0
  4  5  2  0
  5  6  1  0
  6  7  2  0
  6  8  1  0
  8  9  2  0
  9 10  1  0
 10 11  2  0
 11 12  1  0
 12 13  2  0
 12 14  1  0
 14 15  1  0
 10 16  1  0
 16 17  1  0
 17 18  1  0
 18 19  1  0
 19 20  2  0
 20 21  1  0
 20 22  1  0
 22 23  2  0
 23 24  1  0
 24 25  1  0
 24 26  2  0
 26 27  1  0
  7  2  1  0
 14  8  1  0
 18 16  1  0
 26 19  1  0
  1 28  1  0
  1 29  1  0
  1 30  1  0
  3 31  1  0
  5 32  1  0
  7 33  1  0
  9 34  1  0
 11 35  1  0
 15 36  1  0
 15 37  1  0
 15 38  1  0
 16 39  1  0
 17 40  1  0
 17 41  1  0
 18 42  1  0
 22 43  1  0
 23 44  1  0
 25 45  1  0
 25 46  1  0
 25 47  1  0
M  END
$$$$
[H]OC(=O)n1nc(-c2c([H])c([H])c3c(c2[H])C([H])([H])C([H])([H])C3([H])N([H])C([H])([H])[C@]([H])(O[H])[C@]([H])(O[H])[C@]([H])(O[H])[C@@]([H])(O[H])C([H])([H])O[H])c([H])c1-c1c([H])c([H])c([H])c([H])c1[H]
     RDKit          3D

 64 67  0  0  0  0  0  0  0  0999 V2000
    9.0044    1.3926    0.2529 O   0  0  0  0  0  0  0  0  0  0  0  0
    8.8728    0.0652    0.6103 C   0  0  0  0  0  0  0  0  0  0  0  0
    7.9941   -0.7102   -0.3412 C   0  0  2  0  0  0  0  0  0  0  0  0
    8.6470   -0.6083   -1.5993 O   0  0  0  0  0  0  0  0  0  0  0  0
    6.6398   -0.0494   -0.5805 C   0  0  1  0  0  0  0  0  0  0  0  0
    6.1142   -0.8063   -1.6697 O   0  0  0  0  0  0  0  0  0  0  0  0
    5.7887   -0.2152    0.6244 C   0  0  1  0  0  0  0  0  0  0  0  0
    6.3459    0.5010    1.6873 O   0  0  0  0  0  0  0  0  0  0  0  0
    4.3672    0.2449    0.5157 C   0  0  1  0  0  0  0  0  0  0  0  0
    4.2853    1.6309    0.3309 O   0  0  0  0  0  0  0  0  0  0  0  0
    3.5781   -0.3697   -0.6087 C   0  0  0  0  0  0  0  0  0  0  0  0
    2.2203    0.0485   -0.5398 N   0  0  0  0  0  0  0  0  0  0  0  0
    1.4555   -0.5059    0.5483 C   0  0  0  0  0  0  0  0  0  0  0  0
    1.3369   -1.9801    0.3708 C   0  0  0  0  0  0  0  0  0  0  0  0
   -0.0978   -2.2966    0.2009 C   0  0  0  0  0  0  0  0  0  0  0  0
   -0.8157   -1.0051    0.3287 C   0  0  0  0  0  0  0  0  0  0  0  0
   -2.1630   -0.6708    0.2797 C   0  0  0  0  0  0  0  0  0  0  0  0
   -2.6700    0.5940    0.4310 C   0  0  0  0  0  0  0  0  0  0  0  0
   -1.7627    1.6050    0.6492 C   0  0  0  0  0  0  0  0  0  0  0  0
   -0.3990    1.3266    0.7080 C   0  0  0  0  0  0  0  0  0  0  0  0
    0.0678    0.0127    0.5452 C   0  0  0  0  0  0  0  0  0  0  0  0
   -4.1063    0.8669    0.3401 C   0  0  0  0  0  0  0  0  0  0  0  0
   -5.1164   -0.0102    0.0668 C   0  0  0  0  0  0  0  0  0  0  0  0
   -6.3653    0.6826    0.0565 C   0  0  0  0  0  0  0  0  0  0  0  0
   -7.6186    0.0375   -0.2556 C   0  0  0  0  0  0  0  0  0  0  0  0
   -7.5590   -1.1411   -1.0212 C   0  0  0  0  0  0  0  0  0  0  0  0
   -8.6589   -1.8894   -1.3187 C   0  0  0  0  0  0  0  0  0  0  0  0
   -9.9139   -1.5104   -0.8675 C   0  0  0  0  0  0  0  0  0  0  0  0
  -10.0015   -0.3695   -0.1187 C   0  0  0  0  0  0  0  0  0  0  0  0
   -8.8606    0.3768    0.1721 C   0  0  0  0  0  0  0  0  0  0  0  0
   -6.0370    1.9434    0.3204 N   0  0  0  0  0  0  0  0  0  0  0  0
   -4.6873    2.0429    0.4917 N   0  0  0  0  0  0  0  0  0  0  0  0
   -6.8195    3.1161    0.2961 C   0  0  0  0  0  0  0  0  0  0  0  0
   -6.2082    4.3137    0.7632 O   0  0  0  0  0  0  0  0  0  0  0  0
   -7.9781    3.2749   -0.0719 O   0  0  0  0  0  0  0  0  0  0  0  0
    9.8993    1.6984    0.5475 H   0  0  0  0  0  0  0  0  0  0  0  0
    8.6698   -0.1141    1.6774 H   0  0  0  0  0  0  0  0  0  0  0  0
    9.9094   -0.3833    0.4584 H   0  0  0  0  0  0  0  0  0  0  0  0
    7.8485   -1.7239    0.0008 H   0  0  0  0  0  0  0  0  0  0  0  0
    8.9260   -1.5251   -1.8919 H   0  0  0  0  0  0  0  0  0  0  0  0
    6.7576    0.9797   -0.9122 H   0  0  0  0  0  0  0  0  0  0  0  0
    6.1242   -1.7614   -1.3621 H   0  0  0  0  0  0  0  0  0  0  0  0
    5.8404   -1.2909    0.9598 H   0  0  0  0  0  0  0  0  0  0  0  0
    6.3543    1.4871    1.5043 H   0  0  0  0  0  0  0  0  0  0  0  0
    3.8777   -0.0056    1.4702 H   0  0  0  0  0  0  0  0  0  0  0  0
    3.4956    1.9935    0.8026 H   0  0  0  0  0  0  0  0  0  0  0  0
    3.9467    0.1018   -1.5979 H   0  0  0  0  0  0  0  0  0  0  0  0
    3.6606   -1.4487   -0.6619 H   0  0  0  0  0  0  0  0  0  0  0  0
    2.0857    1.0780   -0.5360 H   0  0  0  0  0  0  0  0  0  0  0  0
    1.9304   -0.2532    1.5416 H   0  0  0  0  0  0  0  0  0  0  0  0
    1.9462   -2.3075   -0.5180 H   0  0  0  0  0  0  0  0  0  0  0  0
    1.7728   -2.5038    1.2647 H   0  0  0  0  0  0  0  0  0  0  0  0
   -0.4384   -3.0389    0.9538 H   0  0  0  0  0  0  0  0  0  0  0  0
   -0.2470   -2.7491   -0.8212 H   0  0  0  0  0  0  0  0  0  0  0  0
   -2.8944   -1.4694    0.1057 H   0  0  0  0  0  0  0  0  0  0  0  0
   -2.1052    2.6339    0.7800 H   0  0  0  0  0  0  0  0  0  0  0  0
    0.2828    2.1440    0.8821 H   0  0  0  0  0  0  0  0  0  0  0  0
   -5.0255   -1.0553   -0.1156 H   0  0  0  0  0  0  0  0  0  0  0  0
   -6.5826   -1.4346   -1.3751 H   0  0  0  0  0  0  0  0  0  0  0  0
   -8.6219   -2.7944   -1.9041 H   0  0  0  0  0  0  0  0  0  0  0  0
  -10.7793   -2.1138   -1.1121 H   0  0  0  0  0  0  0  0  0  0  0  0
  -10.9743   -0.0579    0.2434 H   0  0  0  0  0  0  0  0  0  0  0  0
   -9.0216    1.2141    0.8165 H   0  0  0  0  0  0  0  0  0  0  0  0
   -5.5170    4.7623    0.1544 H   0  0  0  0  0  0  0  0  0  0  0  0
  1  2  1  0
  2  3  1  0
  3  4  1  0
  3  5  1  0
  5  6  1  0
  5  7  1  0
  7  8  1  0
  7  9  1  0
  9 10  1  0
  9 11  1  0
 11 12  1  0
 12 13  1  0
 13 14  1  0
 14 15  1  0
 15 16  1  0
 16 17  2  0
 17 18  1  0
 18 19  2  0
 19 20  1  0
 20 21  2  0
 18 22  1  0
 22 23  1  0
 23 24  2  0
 24 25  1  0
 25 26  2  0
 26 27  1  0
 27 28  2  0
 28 29  1  0
 29 30  2  0
 24 31  1  0
 31 32  1  0
 31 33  1  0
 33 34  1  0
 33 35  2  0
 21 13  1  0
 32 22  2  0
 21 16  1  0
 30 25  1  0
  1 36  1  0
  2 37  1  0
  2 38  1  0
  3 39  1  1
  4 40  1  0
  5 41  1  6
  6 42  1  0
  7 43  1  1
  8 44  1  0
  9 45  1  1
 10 46  1  0
 11 47  1  0
 11 48  1  0
 12 49  1  0
 13 50  1  0
 14 51  1  0
 14 52  1  0
 15 53  1  0
 15 54  1  0
 17 55  1  0
 19 56  1  0
 20 57  1  0
 23 58  1  0
 26 59  1  0
 27 60  1  0
 28 61  1  0
 29 62  1  0
 30 63  1  0
 34 64  1  0
M  END
$$$$
[H]c1nc([H])c(N([H])C(=O)c2c([H])c(Oc3c([H])c([H])c(C(=O)N([H])c4c([H])c(C([H])([H])[H])nn4[H])c([H])c3F)c([H])c(OC([H])([H])[H])c2[H])nc1[H]
     RDKit          3D

 53 56  0  0  0  0  0  0  0  0999 V2000
   -4.4889    3.8934   -2.3631 C   0  0  0  0  0  0  0  0  0  0  0  0
   -3.5423    3.6311   -1.3496 O   0  0  0  0  0  0  0  0  0  0  0  0
   -3.2348    2.3060   -1.0657 C   0  0  0  0  0  0  0  0  0  0  0  0
   -2.3030    1.9926   -0.0698 C   0  0  0  0  0  0  0  0  0  0  0  0
   -1.9894    0.6916    0.2216 C   0  0  0  0  0  0  0  0  0  0  0  0
   -1.0479    0.4188    1.2297 O   0  0  0  0  0  0  0  0  0  0  0  0
    0.3051    0.3177    0.8959 C   0  0  0  0  0  0  0  0  0  0  0  0
    0.7236    0.4830   -0.3997 C   0  0  0  0  0  0  0  0  0  0  0  0
    2.0912    0.3652   -0.6428 C   0  0  0  0  0  0  0  0  0  0  0  0
    2.9962    0.0973    0.3487 C   0  0  0  0  0  0  0  0  0  0  0  0
    2.5338   -0.0603    1.6288 C   0  0  0  0  0  0  0  0  0  0  0  0
    1.1811    0.0472    1.9235 C   0  0  0  0  0  0  0  0  0  0  0  0
    0.7300   -0.1111    3.2021 F   0  0  0  0  0  0  0  0  0  0  0  0
    4.4118   -0.0121    0.0619 C   0  0  0  0  0  0  0  0  0  0  0  0
    4.7726    0.4094   -1.0677 O   0  0  0  0  0  0  0  0  0  0  0  0
    5.3235   -0.5534    0.9831 N   0  0  0  0  0  0  0  0  0  0  0  0
    6.7150   -0.6843    0.7574 C   0  0  0  0  0  0  0  0  0  0  0  0
    7.6449   -1.2198    1.6580 C   0  0  0  0  0  0  0  0  0  0  0  0
    8.8951   -1.1865    1.1000 C   0  0  0  0  0  0  0  0  0  0  0  0
   10.1799   -1.6648    1.7305 C   0  0  0  0  0  0  0  0  0  0  0  0
    8.7419   -0.6445   -0.1139 N   0  0  0  0  0  0  0  0  0  0  0  0
    7.4448   -0.3480   -0.3121 N   0  0  0  0  0  0  0  0  0  0  0  0
   -2.6006   -0.3327   -0.4767 C   0  0  0  0  0  0  0  0  0  0  0  0
   -3.5386   -0.0593   -1.4806 C   0  0  0  0  0  0  0  0  0  0  0  0
   -3.8306    1.2676   -1.7477 C   0  0  0  0  0  0  0  0  0  0  0  0
   -4.1677   -1.1419   -2.2198 C   0  0  0  0  0  0  0  0  0  0  0  0
   -3.6432   -1.5885   -3.2935 O   0  0  0  0  0  0  0  0  0  0  0  0
   -5.3610   -1.7343   -1.7914 N   0  0  0  0  0  0  0  0  0  0  0  0
   -6.0668   -1.3573   -0.6290 C   0  0  0  0  0  0  0  0  0  0  0  0
   -7.2584   -2.0173   -0.2830 C   0  0  0  0  0  0  0  0  0  0  0  0
   -7.9437   -1.6741    0.8165 N   0  0  0  0  0  0  0  0  0  0  0  0
   -7.5393   -0.6900    1.6460 C   0  0  0  0  0  0  0  0  0  0  0  0
   -6.3792   -0.0377    1.3211 C   0  0  0  0  0  0  0  0  0  0  0  0
   -5.7019   -0.3875    0.2213 N   0  0  0  0  0  0  0  0  0  0  0  0
   -4.6210    4.9759   -2.5409 H   0  0  0  0  0  0  0  0  0  0  0  0
   -4.1216    3.4209   -3.3140 H   0  0  0  0  0  0  0  0  0  0  0  0
   -5.4563    3.3927   -2.1109 H   0  0  0  0  0  0  0  0  0  0  0  0
   -1.8442    2.8188    0.4560 H   0  0  0  0  0  0  0  0  0  0  0  0
    0.0135    0.6903   -1.1600 H   0  0  0  0  0  0  0  0  0  0  0  0
    2.4205    0.4969   -1.6733 H   0  0  0  0  0  0  0  0  0  0  0  0
    3.1721   -0.2703    2.4745 H   0  0  0  0  0  0  0  0  0  0  0  0
    4.9648   -0.8933    1.9181 H   0  0  0  0  0  0  0  0  0  0  0  0
    7.3908   -1.5945    2.6354 H   0  0  0  0  0  0  0  0  0  0  0  0
   10.4529   -0.8893    2.4829 H   0  0  0  0  0  0  0  0  0  0  0  0
    9.9852   -2.6493    2.2143 H   0  0  0  0  0  0  0  0  0  0  0  0
   10.9566   -1.7451    0.9359 H   0  0  0  0  0  0  0  0  0  0  0  0
    7.1049    0.0890   -1.2071 H   0  0  0  0  0  0  0  0  0  0  0  0
   -2.3514   -1.3579   -0.2448 H   0  0  0  0  0  0  0  0  0  0  0  0
   -4.5600    1.4387   -2.5307 H   0  0  0  0  0  0  0  0  0  0  0  0
   -5.7868   -2.5221   -2.3605 H   0  0  0  0  0  0  0  0  0  0  0  0
   -7.6399   -2.8231   -0.9134 H   0  0  0  0  0  0  0  0  0  0  0  0
   -8.1067   -0.4283    2.5285 H   0  0  0  0  0  0  0  0  0  0  0  0
   -6.0267    0.7602    1.9702 H   0  0  0  0  0  0  0  0  0  0  0  0
  1  2  1  0
  2  3  1  0
  3  4  2  0
  4  5  1  0
  5  6  1  0
  6  7  1  0
  7  8  2  0
  8  9  1  0
  9 10  2  0
 10 11  1  0
 11 12  2  0
 12 13  1  0
 10 14  1  0
 14 15  2  0
 14 16  1  0
 16 17  1  0
 17 18  2  0
 18 19  1  0
 19 20  1  0
 19 21  2  0
 21 22  1  0
  5 23  2  0
 23 24  1  0
 24 25  2  0
 24 26  1  0
 26 27  2  0
 26 28  1  0
 28 29  1  0
 29 30  2  0
 30 31  1  0
 31 32  2  0
 32 33  1  0
 33 34  2  0
 25  3  1  0
 34 29  1  0
 12  7  1  0
 22 17  1  0
  1 35  1  0
  1 36  1  0
  1 37  1  0
  4 38  1  0
  8 39  1  0
  9 40  1  0
 11 41  1  0
 16 42  1  0
 18 43  1  0
 20 44  1  0
 20 45  1  0
 20 46  1  0
 22 47  1  0
 23 48  1  0
 25 49  1  0
 28 50  1  0
 30 51  1  0
 32 52  1  0
 33 53  1  0
M  END
$$$$
[H]/C(C(=O)N([H])c1c(N2C([H])([H])C([H])([H])N(C([H])([H])[H])C([H])(C(=O)N([H])C([H])([H])C([H])([H])[H])C2([H])[H])c([H])c2nc([H])nc(N([H])c3c([H])c([H])c(OC([H])([H])c4c([H])c([H])c([H])c(F)c4[H])c(Cl)c3[H])c2c1[H])=C(/[H])C([H])([H])N(C([H])([H])[H])C([H])([H])[H]
     RDKit          3D

 88 92  0  0  0  0  0  0  0  0999 V2000
   -7.3040   -1.2130    0.1098 C   0  0  0  0  0  0  0  0  0  0  0  0
   -6.2196   -0.9808    1.1496 C   0  0  0  0  0  0  0  0  0  0  0  0
   -5.3385    0.0716    0.7159 N   0  0  0  0  0  0  0  0  0  0  0  0
   -5.8524    1.3779    0.4973 C   0  0  0  0  0  0  0  0  0  0  0  0
   -7.0779    1.5597    0.7011 O   0  0  0  0  0  0  0  0  0  0  0  0
   -4.9177    2.4447    0.0431 C   0  0  0  0  0  0  0  0  0  0  0  0
   -3.6112    2.4522    0.7776 C   0  0  0  0  0  0  0  0  0  0  0  0
   -2.6349    3.0805   -0.1262 N   0  0  0  0  0  0  0  0  0  0  0  0
   -3.1861    4.0793   -1.0100 C   0  0  0  0  0  0  0  0  0  0  0  0
   -4.4369    4.6933   -0.4316 C   0  0  0  0  0  0  0  0  0  0  0  0
   -5.4638    3.7494   -0.0637 N   0  0  0  0  0  0  0  0  0  0  0  0
   -6.1307    4.2550    1.0995 C   0  0  0  0  0  0  0  0  0  0  0  0
   -1.2657    2.7255   -0.1241 C   0  0  0  0  0  0  0  0  0  0  0  0
   -0.3245    3.5629    0.4103 C   0  0  0  0  0  0  0  0  0  0  0  0
    1.0272    3.2381    0.4889 C   0  0  0  0  0  0  0  0  0  0  0  0
    1.8792    4.1151    1.0367 N   0  0  0  0  0  0  0  0  0  0  0  0
    3.1708    3.7807    1.1091 C   0  0  0  0  0  0  0  0  0  0  0  0
    3.5975    2.6096    0.6501 N   0  0  0  0  0  0  0  0  0  0  0  0
    2.8178    1.6757    0.0891 C   0  0  0  0  0  0  0  0  0  0  0  0
    3.3203    0.4789   -0.4165 N   0  0  0  0  0  0  0  0  0  0  0  0
    4.6505    0.0442   -0.3469 C   0  0  0  0  0  0  0  0  0  0  0  0
    5.5680    0.4193    0.6176 C   0  0  0  0  0  0  0  0  0  0  0  0
    6.8630   -0.0450    0.6192 C   0  0  0  0  0  0  0  0  0  0  0  0
    7.2671   -0.9210   -0.3780 C   0  0  0  0  0  0  0  0  0  0  0  0
    8.5623   -1.3754   -0.3613 O   0  0  0  0  0  0  0  0  0  0  0  0
    9.5802   -1.1018    0.5414 C   0  0  0  0  0  0  0  0  0  0  0  0
    9.2471   -1.5818    1.9070 C   0  0  0  0  0  0  0  0  0  0  0  0
    9.8811   -1.0116    2.9893 C   0  0  0  0  0  0  0  0  0  0  0  0
    9.6121   -1.4234    4.2628 C   0  0  0  0  0  0  0  0  0  0  0  0
    8.6739   -2.4433    4.4585 C   0  0  0  0  0  0  0  0  0  0  0  0
    8.0449   -3.0114    3.4033 C   0  0  0  0  0  0  0  0  0  0  0  0
    7.1151   -4.0146    3.5571 F   0  0  0  0  0  0  0  0  0  0  0  0
    8.3386   -2.5724    2.1121 C   0  0  0  0  0  0  0  0  0  0  0  0
    6.3664   -1.3000   -1.3413 C   0  0  0  0  0  0  0  0  0  0  0  0
    6.8451   -2.4163   -2.6258 Cl  0  0  0  0  0  0  0  0  0  0  0  0
    5.0884   -0.8235   -1.3194 C   0  0  0  0  0  0  0  0  0  0  0  0
    1.4614    2.0230    0.0124 C   0  0  0  0  0  0  0  0  0  0  0  0
    0.5387    1.1458   -0.5381 C   0  0  0  0  0  0  0  0  0  0  0  0
   -0.8153    1.4801   -0.6126 C   0  0  0  0  0  0  0  0  0  0  0  0
   -1.7169    0.6135   -1.2265 N   0  0  0  0  0  0  0  0  0  0  0  0
   -1.5326   -0.7151   -1.5818 C   0  0  0  0  0  0  0  0  0  0  0  0
   -0.5149   -1.3822   -1.3977 O   0  0  0  0  0  0  0  0  0  0  0  0
   -2.6527   -1.4533   -2.2602 C   0  0  0  0  0  0  0  0  0  0  0  0
   -2.5422   -2.6991   -2.6218 C   0  0  0  0  0  0  0  0  0  0  0  0
   -3.6388   -3.4457   -3.2956 C   0  0  0  0  0  0  0  0  0  0  0  0
   -3.9812   -4.5742   -2.4780 N   0  0  0  0  0  0  0  0  0  0  0  0
   -4.5814   -4.1369   -1.2509 C   0  0  0  0  0  0  0  0  0  0  0  0
   -4.9261   -5.4214   -3.1769 C   0  0  0  0  0  0  0  0  0  0  0  0
   -7.5323   -2.3065    0.1405 H   0  0  0  0  0  0  0  0  0  0  0  0
   -8.1826   -0.5985    0.3037 H   0  0  0  0  0  0  0  0  0  0  0  0
   -6.9273   -0.9959   -0.9295 H   0  0  0  0  0  0  0  0  0  0  0  0
   -6.7349   -0.6506    2.0817 H   0  0  0  0  0  0  0  0  0  0  0  0
   -5.6875   -1.9234    1.3678 H   0  0  0  0  0  0  0  0  0  0  0  0
   -4.3331   -0.1947    0.5776 H   0  0  0  0  0  0  0  0  0  0  0  0
   -4.6655    2.1380   -1.0251 H   0  0  0  0  0  0  0  0  0  0  0  0
   -3.7346    3.1475    1.6389 H   0  0  0  0  0  0  0  0  0  0  0  0
   -3.3361    1.4418    1.0722 H   0  0  0  0  0  0  0  0  0  0  0  0
   -3.3413    3.7108   -2.0460 H   0  0  0  0  0  0  0  0  0  0  0  0
   -2.4655    4.9406   -1.1364 H   0  0  0  0  0  0  0  0  0  0  0  0
   -4.8896    5.3906   -1.1824 H   0  0  0  0  0  0  0  0  0  0  0  0
   -4.1615    5.3541    0.4276 H   0  0  0  0  0  0  0  0  0  0  0  0
   -6.0659    5.3843    1.0538 H   0  0  0  0  0  0  0  0  0  0  0  0
   -7.1609    3.9329    1.2457 H   0  0  0  0  0  0  0  0  0  0  0  0
   -5.5803    3.9863    2.0487 H   0  0  0  0  0  0  0  0  0  0  0  0
   -0.6078    4.5141    0.7900 H   0  0  0  0  0  0  0  0  0  0  0  0
    3.8572    4.4790    1.5475 H   0  0  0  0  0  0  0  0  0  0  0  0
    2.6331   -0.1708   -0.9003 H   0  0  0  0  0  0  0  0  0  0  0  0
    5.2780    1.0677    1.3958 H   0  0  0  0  0  0  0  0  0  0  0  0
    7.5089    0.3118    1.3994 H   0  0  0  0  0  0  0  0  0  0  0  0
    9.8204   -0.0076    0.5782 H   0  0  0  0  0  0  0  0  0  0  0  0
   10.5379   -1.6040    0.2280 H   0  0  0  0  0  0  0  0  0  0  0  0
   10.6048   -0.2247    2.8390 H   0  0  0  0  0  0  0  0  0  0  0  0
   10.0690   -1.0195    5.1594 H   0  0  0  0  0  0  0  0  0  0  0  0
    8.4588   -2.7721    5.4844 H   0  0  0  0  0  0  0  0  0  0  0  0
    7.8093   -3.0575    1.2980 H   0  0  0  0  0  0  0  0  0  0  0  0
    4.4073   -1.1547   -2.1152 H   0  0  0  0  0  0  0  0  0  0  0  0
    0.9149    0.2304   -0.8989 H   0  0  0  0  0  0  0  0  0  0  0  0
   -2.6684    1.0272   -1.4682 H   0  0  0  0  0  0  0  0  0  0  0  0
   -3.5735   -0.9189   -2.4417 H   0  0  0  0  0  0  0  0  0  0  0  0
   -1.5801   -3.1882   -2.4003 H   0  0  0  0  0  0  0  0  0  0  0  0
   -4.4898   -2.7912   -3.4865 H   0  0  0  0  0  0  0  0  0  0  0  0
   -3.2943   -3.8201   -4.2895 H   0  0  0  0  0  0  0  0  0  0  0  0
   -4.9353   -3.1052   -1.3003 H   0  0  0  0  0  0  0  0  0  0  0  0
   -5.4445   -4.7897   -1.0002 H   0  0  0  0  0  0  0  0  0  0  0  0
   -3.8168   -4.2826   -0.4529 H   0  0  0  0  0  0  0  0  0  0  0  0
   -4.6126   -5.6742   -4.2126 H   0  0  0  0  0  0  0  0  0  0  0  0
   -4.9646   -6.3992   -2.6176 H   0  0  0  0  0  0  0  0  0  0  0  0
   -5.9636   -5.0203   -3.1477 H   0  0  0  0  0  0  0  0  0  0  0  0
  1  2  1  0
  2  3  1  0
  3  4  1  0
  4  5  2  0
  4  6  1  0
  6  7  1  0
  7  8  1  0
  8  9  1  0
  9 10  1  0
 10 11  1  0
 11 12  1  0
  8 13  1  0
 13 14  2  0
 14 15  1  0
 15 16  2  0
 16 17  1  0
 17 18  2  0
 18 19  1  0
 19 20  1  0
 20 21  1  0
 21 22  2  0
 22 23  1  0
 23 24  2  0
 24 25  1  0
 25 26  1  0
 26 27  1  0
 27 28  2  0
 28 29  1  0
 29 30  2  0
 30 31  1  0
 31 32  1  0
 31 33  2  0
 24 34  1  0
 34 35  1  0
 34 36  2  0
 19 37  2  0
 37 38  1  0
 38 39  2  0
 39 40  1  0
 40 41  1  0
 41 42  2  0
 41 43  1  0
 43 44  2  0
 44 45  1  0
 45 46  1  0
 46 47  1  0
 46 48  1  0
 11  6  1  0
 39 13  1  0
 37 15  1  0
 36 21  1  0
 33 27  1  0
  1 49  1  0
  1 50  1  0
  1 51  1  0
  2 52  1  0
  2 53  1  0
  3 54  1  0
  6 55  1  0
  7 56  1  0
  7 57  1  0
  9 58  1  0
  9 59  1  0
 10 60  1  0
 10 61  1  0
 12 62  1  0
 12 63  1  0
 12 64  1  0
 14 65  1  0
 17 66  1  0
 20 67  1  0
 22 68  1  0
 23 69  1  0
 26 70  1  0
 26 71  1  0
 28 72  1  0
 29 73  1  0
 30 74  1  0
 33 75  1  0
 36 76  1  0
 38 77  1  0
 40 78  1  0
 43 79  1  0
 44 80  1  0
 45 81  1  0
 45 82  1  0
 47 83  1  0
 47 84  1  0
 47 85  1  0
 48 86  1  0
 48 87  1  0
 48 88  1  0
M  END
$$$$
[H]Oc1c(C(F)(F)F)c([H])c([H])c([H])c1C([H])([H])N(C(=O)c1nc([H])c(Oc2nc([H])c([H])s2)nc1[H])C([H])([H])C([H])=C([H])[H]
     RDKit          3D

 45 47  0  0  0  0  0  0  0  0999 V2000
   -5.0826    0.6424    0.6670 O   0  0  0  0  0  0  0  0  0  0  0  0
   -4.2746    0.4159   -0.4344 C   0  0  0  0  0  0  0  0  0  0  0  0
   -2.8936    0.2484   -0.2220 C   0  0  0  0  0  0  0  0  0  0  0  0
   -2.3882    0.3713    1.1610 C   0  0  0  0  0  0  0  0  0  0  0  0
   -0.9637    0.0880    1.2888 N   0  0  0  0  0  0  0  0  0  0  0  0
   -0.5889   -1.2306    1.7101 C   0  0  0  0  0  0  0  0  0  0  0  0
   -0.2769   -2.2159    0.6757 C   0  0  0  0  0  0  0  0  0  0  0  0
   -0.9779   -3.3372    0.5864 C   0  0  0  0  0  0  0  0  0  0  0  0
   -0.0410    1.1336    1.0820 C   0  0  0  0  0  0  0  0  0  0  0  0
   -0.5194    2.2958    0.7883 O   0  0  0  0  0  0  0  0  0  0  0  0
    1.4092    1.0569    1.1614 C   0  0  0  0  0  0  0  0  0  0  0  0
    2.1755    2.2045    0.9305 C   0  0  0  0  0  0  0  0  0  0  0  0
    3.5018    2.1210    1.0106 N   0  0  0  0  0  0  0  0  0  0  0  0
    4.1427    0.9836    1.3035 C   0  0  0  0  0  0  0  0  0  0  0  0
    5.5079    0.9804    1.3674 O   0  0  0  0  0  0  0  0  0  0  0  0
    6.2655    0.5918    0.2423 C   0  0  0  0  0  0  0  0  0  0  0  0
    7.5818    0.5261    0.1172 N   0  0  0  0  0  0  0  0  0  0  0  0
    8.1069    0.1450   -0.9987 C   0  0  0  0  0  0  0  0  0  0  0  0
    7.2598   -0.1819   -2.0272 C   0  0  0  0  0  0  0  0  0  0  0  0
    5.7324    0.0853   -1.3086 S   0  0  0  0  0  0  0  0  0  0  0  0
    3.4078   -0.1573    1.5340 C   0  0  0  0  0  0  0  0  0  0  0  0
    2.0828   -0.0561    1.4500 N   0  0  0  0  0  0  0  0  0  0  0  0
   -2.1101    0.0275   -1.3169 C   0  0  0  0  0  0  0  0  0  0  0  0
   -2.6776   -0.0293   -2.5967 C   0  0  0  0  0  0  0  0  0  0  0  0
   -4.0356    0.1390   -2.7633 C   0  0  0  0  0  0  0  0  0  0  0  0
   -4.8523    0.3652   -1.6759 C   0  0  0  0  0  0  0  0  0  0  0  0
   -6.3102    0.5464   -1.8632 C   0  0  0  0  0  0  0  0  0  0  0  0
   -6.6022    0.4473   -3.1908 F   0  0  0  0  0  0  0  0  0  0  0  0
   -6.7556    1.7429   -1.3218 F   0  0  0  0  0  0  0  0  0  0  0  0
   -6.9366   -0.5275   -1.2189 F   0  0  0  0  0  0  0  0  0  0  0  0
   -4.6951    0.6850    1.5763 H   0  0  0  0  0  0  0  0  0  0  0  0
   -2.9414   -0.3162    1.8408 H   0  0  0  0  0  0  0  0  0  0  0  0
   -2.6245    1.3937    1.5341 H   0  0  0  0  0  0  0  0  0  0  0  0
    0.1726   -1.1818    2.5263 H   0  0  0  0  0  0  0  0  0  0  0  0
   -1.4832   -1.6788    2.2832 H   0  0  0  0  0  0  0  0  0  0  0  0
    0.5235   -2.1075   -0.0768 H   0  0  0  0  0  0  0  0  0  0  0  0
   -0.7710   -4.0772   -0.1625 H   0  0  0  0  0  0  0  0  0  0  0  0
   -1.8028   -3.5340    1.2949 H   0  0  0  0  0  0  0  0  0  0  0  0
    1.6662    3.1437    0.6896 H   0  0  0  0  0  0  0  0  0  0  0  0
    9.2060    0.0727   -1.1561 H   0  0  0  0  0  0  0  0  0  0  0  0
    7.5316   -0.5252   -3.0427 H   0  0  0  0  0  0  0  0  0  0  0  0
    3.9070   -1.1114    1.7774 H   0  0  0  0  0  0  0  0  0  0  0  0
   -1.0352   -0.0774   -1.2137 H   0  0  0  0  0  0  0  0  0  0  0  0
   -2.0318   -0.2087   -3.4643 H   0  0  0  0  0  0  0  0  0  0  0  0
   -4.5090    0.1007   -3.7419 H   0  0  0  0  0  0  0  0  0  0  0  0
  1  2  1  0
  2  3  2  0
  3  4  1  0
  4  5  1  0
  5  6  1  0
  6  7  1  0
  7  8  2  3
  5  9  1  0
  9 10  2  0
  9 11  1  0
 11 12  2  0
 12 13  1  0
 13 14  2  0
 14 15  1  0
 15 16  1  0
 16 17  2  0
 17 18  1  0
 18 19  2  0
 19 20  1  0
 14 21  1  0
 21 22  2  0
  3 23  1  0
 23 24  2  0
 24 25  1  0
 25 26  2  0
 26 27  1  0
 27 28  1  0
 27 29  1  0
 27 30  1  0
 26  2  1  0
 22 11  1  0
 20 16  1  0
  1 31  1  0
  4 32  1  0
  4 33  1  0
  6 34  1  0
  6 35  1  0
  7 36  1  0
  8 37  1  0
  8 38  1  0
 12 39  1  0
 18 40  1  0
 19 41  1  0
 21 42  1  0
 23 43  1  0
 24 44  1  0
 25 45  1  0
M  END
$$$$
[H]OC([H])([H])C1(C([H])([H])OC(=O)c2c([H])c([H])c(F)c([H])c2[H])OC(=O)/C(=C(\[H])c2c([H])n(C([H])([H])C([H])([H])N(C([H])([H])[H])C([H])([H])[H])c3c([H])c([H])c([H])c([H])c23)C1([H])[H]
     RDKit          3D

 61 64  0  0  0  0  0  0  0  0999 V2000
   -5.9377    1.1716   -1.3829 C   0  0  0  0  0  0  0  0  0  0  0  0
   -6.3649    1.8034   -0.1851 N   0  0  0  0  0  0  0  0  0  0  0  0
   -7.7623    2.1502   -0.2774 C   0  0  0  0  0  0  0  0  0  0  0  0
   -6.1137    1.1387    1.0406 C   0  0  0  0  0  0  0  0  0  0  0  0
   -4.7387    1.0597    1.5653 C   0  0  0  0  0  0  0  0  0  0  0  0
   -3.7431    0.4059    0.7564 N   0  0  0  0  0  0  0  0  0  0  0  0
   -2.8708    0.9351   -0.1092 C   0  0  0  0  0  0  0  0  0  0  0  0
   -2.0398   -0.0486   -0.6624 C   0  0  0  0  0  0  0  0  0  0  0  0
   -1.0125    0.1732   -1.6655 C   0  0  0  0  0  0  0  0  0  0  0  0
    0.2602   -0.1098   -1.5261 C   0  0  0  0  0  0  0  0  0  0  0  0
    0.9224   -0.7098   -0.3206 C   0  0  0  0  0  0  0  0  0  0  0  0
    2.3352   -0.1255   -0.4215 C   0  0  0  0  0  0  0  0  0  0  0  0
    2.3838    1.2054    0.3409 C   0  0  0  0  0  0  0  0  0  0  0  0
    2.1652    0.9877    1.6829 O   0  0  0  0  0  0  0  0  0  0  0  0
    3.2783   -1.0473    0.2843 C   0  0  0  0  0  0  0  0  0  0  0  0
    4.6023   -0.6956    0.3082 O   0  0  0  0  0  0  0  0  0  0  0  0
    5.4951   -0.5874   -0.7183 C   0  0  0  0  0  0  0  0  0  0  0  0
    5.1159   -0.8425   -1.8880 O   0  0  0  0  0  0  0  0  0  0  0  0
    6.8957   -0.1780   -0.4854 C   0  0  0  0  0  0  0  0  0  0  0  0
    7.7956   -0.0714   -1.5175 C   0  0  0  0  0  0  0  0  0  0  0  0
    9.1141    0.3144   -1.2814 C   0  0  0  0  0  0  0  0  0  0  0  0
    9.5647    0.6024   -0.0110 C   0  0  0  0  0  0  0  0  0  0  0  0
   10.8506    0.9770    0.2159 F   0  0  0  0  0  0  0  0  0  0  0  0
    8.6386    0.4882    1.0169 C   0  0  0  0  0  0  0  0  0  0  0  0
    7.3232    0.1050    0.7935 C   0  0  0  0  0  0  0  0  0  0  0  0
    2.5534    0.0855   -1.7744 O   0  0  0  0  0  0  0  0  0  0  0  0
    1.3536    0.0844   -2.4806 C   0  0  0  0  0  0  0  0  0  0  0  0
    1.1941    0.2213   -3.7069 O   0  0  0  0  0  0  0  0  0  0  0  0
   -2.4373   -1.2370   -0.0973 C   0  0  0  0  0  0  0  0  0  0  0  0
   -2.0139   -2.5590   -0.2506 C   0  0  0  0  0  0  0  0  0  0  0  0
   -2.6091   -3.5852    0.4449 C   0  0  0  0  0  0  0  0  0  0  0  0
   -3.6395   -3.2778    1.3012 C   0  0  0  0  0  0  0  0  0  0  0  0
   -4.0622   -1.9755    1.4551 C   0  0  0  0  0  0  0  0  0  0  0  0
   -3.4732   -0.9336    0.7618 C   0  0  0  0  0  0  0  0  0  0  0  0
   -5.5911    0.1295   -1.2974 H   0  0  0  0  0  0  0  0  0  0  0  0
   -6.8434    1.1051   -2.0874 H   0  0  0  0  0  0  0  0  0  0  0  0
   -5.1734    1.7521   -1.9683 H   0  0  0  0  0  0  0  0  0  0  0  0
   -7.9496    2.9538   -1.0197 H   0  0  0  0  0  0  0  0  0  0  0  0
   -8.0964    2.4682    0.7506 H   0  0  0  0  0  0  0  0  0  0  0  0
   -8.3824    1.2609   -0.5192 H   0  0  0  0  0  0  0  0  0  0  0  0
   -6.8238    1.6021    1.8023 H   0  0  0  0  0  0  0  0  0  0  0  0
   -6.5678    0.0941    0.9118 H   0  0  0  0  0  0  0  0  0  0  0  0
   -4.3843    2.1261    1.7085 H   0  0  0  0  0  0  0  0  0  0  0  0
   -4.7960    0.6029    2.5870 H   0  0  0  0  0  0  0  0  0  0  0  0
   -2.7969    1.9752   -0.3631 H   0  0  0  0  0  0  0  0  0  0  0  0
   -1.2749    0.6183   -2.6478 H   0  0  0  0  0  0  0  0  0  0  0  0
    0.9933   -1.8044   -0.4166 H   0  0  0  0  0  0  0  0  0  0  0  0
    0.4301   -0.4163    0.6183 H   0  0  0  0  0  0  0  0  0  0  0  0
    1.7148    1.9499   -0.0942 H   0  0  0  0  0  0  0  0  0  0  0  0
    3.4308    1.5914    0.2377 H   0  0  0  0  0  0  0  0  0  0  0  0
    2.6490    1.6064    2.2714 H   0  0  0  0  0  0  0  0  0  0  0  0
    2.9181   -1.0785    1.3567 H   0  0  0  0  0  0  0  0  0  0  0  0
    3.1195   -2.1181   -0.0481 H   0  0  0  0  0  0  0  0  0  0  0  0
    7.4444   -0.2980   -2.5248 H   0  0  0  0  0  0  0  0  0  0  0  0
    9.7862    0.3848   -2.1245 H   0  0  0  0  0  0  0  0  0  0  0  0
    9.0065    0.7175    2.0075 H   0  0  0  0  0  0  0  0  0  0  0  0
    6.6241    0.0254    1.6216 H   0  0  0  0  0  0  0  0  0  0  0  0
   -1.2144   -2.7556   -0.9453 H   0  0  0  0  0  0  0  0  0  0  0  0
   -2.2633   -4.6244    0.3140 H   0  0  0  0  0  0  0  0  0  0  0  0
   -4.1056   -4.0889    1.8483 H   0  0  0  0  0  0  0  0  0  0  0  0
   -4.8769   -1.7048    2.1273 H   0  0  0  0  0  0  0  0  0  0  0  0
  1  2  1  0
  2  3  1  0
  2  4  1  0
  4  5  1  0
  5  6  1  0
  6  7  1  0
  7  8  2  0
  8  9  1  0
  9 10  2  0
 10 11  1  0
 11 12  1  0
 12 13  1  0
 13 14  1  0
 12 15  1  0
 15 16  1  0
 16 17  1  0
 17 18  2  0
 17 19  1  0
 19 20  2  0
 20 21  1  0
 21 22  2  0
 22 23  1  0
 22 24  1  0
 24 25  2  0
 12 26  1  0
 26 27  1  0
 27 28  2  0
  8 29  1  0
 29 30  2  0
 30 31  1  0
 31 32  2  0
 32 33  1  0
 33 34  2  0
 34  6  1  0
 27 10  1  0
 34 29  1  0
 25 19  1  0
  1 35  1  0
  1 36  1  0
  1 37  1  0
  3 38  1  0
  3 39  1  0
  3 40  1  0
  4 41  1  0
  4 42  1  0
  5 43  1  0
  5 44  1  0
  7 45  1  0
  9 46  1  0
 11 47  1  0
 11 48  1  0
 13 49  1  0
 13 50  1  0
 14 51  1  0
 15 52  1  0
 15 53  1  0
 20 54  1  0
 21 55  1  0
 24 56  1  0
 25 57  1  0
 30 58  1  0
 31 59  1  0
 32 60  1  0
 33 61  1  0
M  END
$$$$
[H]c1c([H])c(-c2nnn(C([H])([H])c3sc(N([H])[H])nc3C([H])([H])[H])n2)c([H])c([H])c1C(=O)N([H])[H]
     RDKit          3D

 35 37  0  0  0  0  0  0  0  0999 V2000
   -4.1156   -0.0065    2.3423 C   0  0  0  0  0  0  0  0  0  0  0  0
   -4.2852    0.0302    0.8344 C   0  0  0  0  0  0  0  0  0  0  0  0
   -5.1070   -0.7665    0.2227 N   0  0  0  0  0  0  0  0  0  0  0  0
   -5.2349   -0.7089   -1.0939 C   0  0  0  0  0  0  0  0  0  0  0  0
   -6.1026   -1.5288   -1.8792 N   0  0  0  0  0  0  0  0  0  0  0  0
   -4.1407    0.5349   -1.5059 S   0  0  0  0  0  0  0  0  0  0  0  0
   -3.5728    0.9144    0.0649 C   0  0  0  0  0  0  0  0  0  0  0  0
   -2.5618    1.9395    0.4901 C   0  0  0  0  0  0  0  0  0  0  0  0
   -1.2856    1.3892    0.8050 N   0  0  0  0  0  0  0  0  0  0  0  0
   -0.8844    0.9685    1.9826 N   0  0  0  0  0  0  0  0  0  0  0  0
    0.3505    0.5183    1.9323 N   0  0  0  0  0  0  0  0  0  0  0  0
    0.7683    0.6531    0.6652 C   0  0  0  0  0  0  0  0  0  0  0  0
   -0.2620    1.1930   -0.0074 N   0  0  0  0  0  0  0  0  0  0  0  0
    2.0917    0.2872    0.1143 C   0  0  0  0  0  0  0  0  0  0  0  0
    3.0698   -0.2491    0.9190 C   0  0  0  0  0  0  0  0  0  0  0  0
    4.3137   -0.6025    0.4354 C   0  0  0  0  0  0  0  0  0  0  0  0
    4.6080   -0.4170   -0.9113 C   0  0  0  0  0  0  0  0  0  0  0  0
    3.6375    0.1193   -1.7283 C   0  0  0  0  0  0  0  0  0  0  0  0
    2.3838    0.4701   -1.2173 C   0  0  0  0  0  0  0  0  0  0  0  0
    5.9219   -0.7947   -1.4093 C   0  0  0  0  0  0  0  0  0  0  0  0
    6.9207   -1.3808   -0.6098 N   0  0  0  0  0  0  0  0  0  0  0  0
    6.1671   -0.5764   -2.6410 O   0  0  0  0  0  0  0  0  0  0  0  0
   -5.1302   -0.2047    2.8038 H   0  0  0  0  0  0  0  0  0  0  0  0
   -3.4805   -0.8301    2.6706 H   0  0  0  0  0  0  0  0  0  0  0  0
   -3.8473    0.9934    2.6712 H   0  0  0  0  0  0  0  0  0  0  0  0
   -5.7448   -2.0974   -2.6697 H   0  0  0  0  0  0  0  0  0  0  0  0
   -7.1161   -1.5653   -1.6647 H   0  0  0  0  0  0  0  0  0  0  0  0
   -2.4750    2.6364   -0.3954 H   0  0  0  0  0  0  0  0  0  0  0  0
   -2.9976    2.5726    1.2910 H   0  0  0  0  0  0  0  0  0  0  0  0
    2.8555   -0.3991    1.9735 H   0  0  0  0  0  0  0  0  0  0  0  0
    5.0930   -1.0262    1.0579 H   0  0  0  0  0  0  0  0  0  0  0  0
    3.8812    0.2573   -2.7784 H   0  0  0  0  0  0  0  0  0  0  0  0
    1.6656    0.8825   -1.8911 H   0  0  0  0  0  0  0  0  0  0  0  0
    7.0545   -1.0595    0.3712 H   0  0  0  0  0  0  0  0  0  0  0  0
    7.5614   -2.1462   -0.9458 H   0  0  0  0  0  0  0  0  0  0  0  0
  1  2  1  0
  2  3  1  0
  3  4  2  0
  4  5  1  0
  4  6  1  0
  6  7  1  0
  7  8  1  0
  8  9  1  0
  9 10  1  0
 10 11  2  0
 11 12  1  0
 12 13  2  0
 12 14  1  0
 14 15  2  0
 15 16  1  0
 16 17  2  0
 17 18  1  0
 18 19  2  0
 17 20  1  0
 20 21  1  0
 20 22  2  0
  7  2  2  0
 13  9  1  0
 19 14  1  0
  1 23  1  0
  1 24  1  0
  1 25  1  0
  5 26  1  0
  5 27  1  0
  8 28  1  0
  8 29  1  0
 15 30  1  0
 16 31  1  0
 18 32  1  0
 19 33  1  0
 21 34  1  0
 21 35  1  0
M  END
$$$$
[H]c1c([H])c(N([H])C(=O)c2c([H])c([H])c([H])c3oc([N+](C([H])([H])[H])(C([H])([H])[H])C([H])([H])[H])c([H])c23)c([H])c(Cl)c1Cl
     RDKit          3D

 41 43  0  0  0  0  0  0  0  0999 V2000
   -3.1073    2.2244    0.4864 C   0  0  0  0  0  0  0  0  0  0  0  0
   -3.7139    1.0826   -0.1813 N   0  0  0  0  0  0  0  0  0  0  0  0
   -4.9641    0.8092    0.4918 C   0  0  0  0  0  0  0  0  0  0  0  0
   -4.0165    1.4930   -1.5324 C   0  0  0  0  0  0  0  0  0  0  0  0
   -2.8208   -0.0281   -0.1466 C   0  0  0  0  0  0  0  0  0  0  0  0
   -1.4524    0.0851    0.0623 C   0  0  0  0  0  0  0  0  0  0  0  0
   -0.8929   -1.1734    0.0359 C   0  0  0  0  0  0  0  0  0  0  0  0
    0.3831   -1.6670    0.1792 C   0  0  0  0  0  0  0  0  0  0  0  0
    0.6080   -3.0177    0.0957 C   0  0  0  0  0  0  0  0  0  0  0  0
   -0.4726   -3.8785   -0.1355 C   0  0  0  0  0  0  0  0  0  0  0  0
   -1.7518   -3.3867   -0.2793 C   0  0  0  0  0  0  0  0  0  0  0  0
   -1.9758   -2.0267   -0.1950 C   0  0  0  0  0  0  0  0  0  0  0  0
   -3.0640   -1.2861   -0.2899 O   0  0  0  0  0  0  0  0  0  0  0  0
    1.4706   -0.6829    0.4259 C   0  0  0  0  0  0  0  0  0  0  0  0
    1.1745    0.1920    1.2600 O   0  0  0  0  0  0  0  0  0  0  0  0
    2.6904   -0.8031   -0.2627 N   0  0  0  0  0  0  0  0  0  0  0  0
    3.8336    0.0020   -0.1840 C   0  0  0  0  0  0  0  0  0  0  0  0
    3.9269    1.0931    0.6188 C   0  0  0  0  0  0  0  0  0  0  0  0
    5.0810    1.8831    0.6828 C   0  0  0  0  0  0  0  0  0  0  0  0
    6.1664    1.5756   -0.0728 C   0  0  0  0  0  0  0  0  0  0  0  0
    7.5926    2.5984    0.0429 Cl  0  0  0  0  0  0  0  0  0  0  0  0
    6.1102    0.4824   -0.8949 C   0  0  0  0  0  0  0  0  0  0  0  0
    7.5285    0.1041   -1.8633 Cl  0  0  0  0  0  0  0  0  0  0  0  0
    4.9743   -0.2915   -0.9550 C   0  0  0  0  0  0  0  0  0  0  0  0
   -2.3445    2.7008   -0.1853 H   0  0  0  0  0  0  0  0  0  0  0  0
   -3.8658    2.9966    0.6822 H   0  0  0  0  0  0  0  0  0  0  0  0
   -2.5907    1.8621    1.3998 H   0  0  0  0  0  0  0  0  0  0  0  0
   -4.8566    0.1768    1.3814 H   0  0  0  0  0  0  0  0  0  0  0  0
   -5.6192    0.2784   -0.2282 H   0  0  0  0  0  0  0  0  0  0  0  0
   -5.4027    1.8173    0.7504 H   0  0  0  0  0  0  0  0  0  0  0  0
   -4.6451    0.6906   -1.9772 H   0  0  0  0  0  0  0  0  0  0  0  0
   -4.6277    2.4195   -1.4549 H   0  0  0  0  0  0  0  0  0  0  0  0
   -3.1063    1.6527   -2.1424 H   0  0  0  0  0  0  0  0  0  0  0  0
   -0.8900    0.9936    0.2211 H   0  0  0  0  0  0  0  0  0  0  0  0
    1.6124   -3.3656    0.2117 H   0  0  0  0  0  0  0  0  0  0  0  0
   -0.2670   -4.9295   -0.1959 H   0  0  0  0  0  0  0  0  0  0  0  0
   -2.5958   -4.0405   -0.4582 H   0  0  0  0  0  0  0  0  0  0  0  0
    2.7430   -1.6385   -0.9475 H   0  0  0  0  0  0  0  0  0  0  0  0
    3.1280    1.4181    1.2510 H   0  0  0  0  0  0  0  0  0  0  0  0
    5.0752    2.7320    1.3450 H   0  0  0  0  0  0  0  0  0  0  0  0
    4.9448   -1.1478   -1.6059 H   0  0  0  0  0  0  0  0  0  0  0  0
  1  2  1  0
  2  3  1  0
  2  4  1  0
  2  5  1  0
  5  6  2  0
  6  7  1  0
  7  8  2  0
  8  9  1  0
  9 10  2  0
 10 11  1  0
 11 12  2  0
 12 13  1  0
  8 14  1  0
 14 15  2  0
 14 16  1  0
 16 17  1  0
 17 18  2  0
 18 19  1  0
 19 20  2  0
 20 21  1  0
 20 22  1  0
 22 23  1  0
 22 24  2  0
 13  5  1  0
 24 17  1  0
 12  7  1  0
  1 25  1  0
  1 26  1  0
  1 27  1  0
  3 28  1  0
  3 29  1  0
  3 30  1  0
  4 31  1  0
  4 32  1  0
  4 33  1  0
  6 34  1  0
  9 35  1  0
 10 36  1  0
 11 37  1  0
 16 38  1  0
 18 39  1  0
 19 40  1  0
 24 41  1  0
M  CHG  1   2   1
M  END
$$$$
[H]OC([H])([H])c1nc2c([H])c([H])c(-c3c([H])nc4c(N([H])c5nc(N([H])[H])nc(C([H])([H])[H])c5[H])nc(C#N)c([H])n34)c([H])c2c([H])c1[H]
     RDKit          3D

 49 53  0  0  0  0  0  0  0  0999 V2000
   -8.5886    1.5269    0.3093 C   0  0  0  0  0  0  0  0  0  0  0  0
   -7.3513    0.8334   -0.1228 C   0  0  0  0  0  0  0  0  0  0  0  0
   -6.0882    1.2501    0.2236 C   0  0  0  0  0  0  0  0  0  0  0  0
   -4.9620    0.5522   -0.2164 C   0  0  0  0  0  0  0  0  0  0  0  0
   -3.6814    1.0256    0.1705 N   0  0  0  0  0  0  0  0  0  0  0  0
   -2.5179    0.3038   -0.2846 C   0  0  0  0  0  0  0  0  0  0  0  0
   -2.6212   -0.7898   -1.0548 N   0  0  0  0  0  0  0  0  0  0  0  0
   -1.5738   -1.4730   -1.4872 C   0  0  0  0  0  0  0  0  0  0  0  0
   -0.2889   -1.0498   -1.1349 C   0  0  0  0  0  0  0  0  0  0  0  0
   -0.1362    0.0429   -0.3654 N   0  0  0  0  0  0  0  0  0  0  0  0
    0.9716    0.6273    0.1126 C   0  0  0  0  0  0  0  0  0  0  0  0
    0.5017    1.7162    0.8742 C   0  0  0  0  0  0  0  0  0  0  0  0
   -0.8287    1.7340    0.8159 N   0  0  0  0  0  0  0  0  0  0  0  0
   -1.2494    0.7121    0.0562 C   0  0  0  0  0  0  0  0  0  0  0  0
    2.3974    0.3078    0.0140 C   0  0  0  0  0  0  0  0  0  0  0  0
    2.9653   -0.5137   -0.9160 C   0  0  0  0  0  0  0  0  0  0  0  0
    4.3122   -0.8580   -0.9390 C   0  0  0  0  0  0  0  0  0  0  0  0
    5.1300   -0.3413    0.0307 C   0  0  0  0  0  0  0  0  0  0  0  0
    6.4315   -0.6679    0.0157 N   0  0  0  0  0  0  0  0  0  0  0  0
    7.2827   -0.2067    0.9203 C   0  0  0  0  0  0  0  0  0  0  0  0
    8.7048   -0.5919    0.8656 C   0  0  0  0  0  0  0  0  0  0  0  0
    8.8973   -1.4375   -0.2166 O   0  0  0  0  0  0  0  0  0  0  0  0
    6.7952    0.6430    1.9114 C   0  0  0  0  0  0  0  0  0  0  0  0
    5.4606    0.9869    1.9390 C   0  0  0  0  0  0  0  0  0  0  0  0
    4.5819    0.4980    0.9878 C   0  0  0  0  0  0  0  0  0  0  0  0
    3.2518    0.8236    0.9929 C   0  0  0  0  0  0  0  0  0  0  0  0
   -1.7008   -2.6567   -2.3210 C   0  0  0  0  0  0  0  0  0  0  0  0
   -1.8053   -3.5895   -2.9890 N   0  0  0  0  0  0  0  0  0  0  0  0
   -5.1856   -0.5187   -0.9760 N   0  0  0  0  0  0  0  0  0  0  0  0
   -6.3961   -0.9516   -1.3316 C   0  0  0  0  0  0  0  0  0  0  0  0
   -6.5790   -2.1002   -2.1439 N   0  0  0  0  0  0  0  0  0  0  0  0
   -7.4628   -0.2669   -0.8982 N   0  0  0  0  0  0  0  0  0  0  0  0
   -9.3809    1.3289   -0.4649 H   0  0  0  0  0  0  0  0  0  0  0  0
   -9.0045    1.0997    1.2536 H   0  0  0  0  0  0  0  0  0  0  0  0
   -8.3963    2.6237    0.3975 H   0  0  0  0  0  0  0  0  0  0  0  0
   -5.9888    2.1235    0.8396 H   0  0  0  0  0  0  0  0  0  0  0  0
   -3.5683    1.8651    0.7634 H   0  0  0  0  0  0  0  0  0  0  0  0
    0.5341   -1.6312   -1.4707 H   0  0  0  0  0  0  0  0  0  0  0  0
    1.1560    2.4195    1.4102 H   0  0  0  0  0  0  0  0  0  0  0  0
    2.3786   -0.9014   -1.7163 H   0  0  0  0  0  0  0  0  0  0  0  0
    4.6694   -1.5190   -1.7171 H   0  0  0  0  0  0  0  0  0  0  0  0
    9.0361   -1.1447    1.7689 H   0  0  0  0  0  0  0  0  0  0  0  0
    9.3492    0.3036    0.6841 H   0  0  0  0  0  0  0  0  0  0  0  0
    8.3360   -1.1763   -0.9849 H   0  0  0  0  0  0  0  0  0  0  0  0
    7.5233    0.9960    2.6290 H   0  0  0  0  0  0  0  0  0  0  0  0
    5.1004    1.6408    2.7067 H   0  0  0  0  0  0  0  0  0  0  0  0
    2.8534    1.4793    1.7586 H   0  0  0  0  0  0  0  0  0  0  0  0
   -7.4883   -2.3183   -2.5736 H   0  0  0  0  0  0  0  0  0  0  0  0
   -5.7760   -2.7600   -2.3244 H   0  0  0  0  0  0  0  0  0  0  0  0
  1  2  1  0
  2  3  2  0
  3  4  1  0
  4  5  1  0
  5  6  1  0
  6  7  2  0
  7  8  1  0
  8  9  2  0
  9 10  1  0
 10 11  1  0
 11 12  2  0
 12 13  1  0
 13 14  2  0
 11 15  1  0
 15 16  2  0
 16 17  1  0
 17 18  2  0
 18 19  1  0
 19 20  2  0
 20 21  1  0
 21 22  1  0
 20 23  1  0
 23 24  2  0
 24 25  1  0
 25 26  2  0
  8 27  1  0
 27 28  3  0
  4 29  2  0
 29 30  1  0
 30 31  1  0
 30 32  2  0
 32  2  1  0
 14  6  1  0
 26 15  1  0
 14 10  1  0
 25 18  1  0
  1 33  1  0
  1 34  1  0
  1 35  1  0
  3 36  1  0
  5 37  1  0
  9 38  1  0
 12 39  1  0
 16 40  1  0
 17 41  1  0
 21 42  1  0
 21 43  1  0
 22 44  1  0
 23 45  1  0
 24 46  1  0
 26 47  1  0
 31 48  1  0
 31 49  1  0
M  END
$$$$
[H]c1c(C(=O)OC([H])([H])[H])oc2sc(C(=O)C(F)(F)F)c([H])c12
     RDKit          3D

 23 24  0  0  0  0  0  0  0  0999 V2000
    5.1980   -0.8240   -0.0897 C   0  0  0  0  0  0  0  0  0  0  0  0
    3.7833   -0.6994   -0.0716 O   0  0  0  0  0  0  0  0  0  0  0  0
    3.1886    0.4909   -0.4265 C   0  0  0  0  0  0  0  0  0  0  0  0
    3.9208    1.4564   -0.7640 O   0  0  0  0  0  0  0  0  0  0  0  0
    1.7389    0.6475   -0.4172 C   0  0  0  0  0  0  0  0  0  0  0  0
    0.8343   -0.3426   -0.0648 C   0  0  0  0  0  0  0  0  0  0  0  0
   -0.4576    0.2103   -0.1882 C   0  0  0  0  0  0  0  0  0  0  0  0
   -1.7490   -0.1711   -0.0140 C   0  0  0  0  0  0  0  0  0  0  0  0
   -2.7129    0.7601   -0.2712 C   0  0  0  0  0  0  0  0  0  0  0  0
   -1.8088    2.1283   -0.7440 S   0  0  0  0  0  0  0  0  0  0  0  0
   -0.2374    1.4885   -0.6044 C   0  0  0  0  0  0  0  0  0  0  0  0
    1.0737    1.7256   -0.7335 O   0  0  0  0  0  0  0  0  0  0  0  0
   -4.1857    0.6067   -0.1622 C   0  0  0  0  0  0  0  0  0  0  0  0
   -4.8775    1.6123   -0.4543 O   0  0  0  0  0  0  0  0  0  0  0  0
   -4.7192   -0.6815    0.2700 C   0  0  0  0  0  0  0  0  0  0  0  0
   -4.2832   -1.0608    1.5355 F   0  0  0  0  0  0  0  0  0  0  0  0
   -4.3768   -1.6614   -0.6320 F   0  0  0  0  0  0  0  0  0  0  0  0
   -6.1162   -0.5663    0.2949 F   0  0  0  0  0  0  0  0  0  0  0  0
    5.4641   -1.8883   -0.2331 H   0  0  0  0  0  0  0  0  0  0  0  0
    5.6602   -0.4610    0.8603 H   0  0  0  0  0  0  0  0  0  0  0  0
    5.6312   -0.2359   -0.9260 H   0  0  0  0  0  0  0  0  0  0  0  0
    1.1030   -1.3442    0.2433 H   0  0  0  0  0  0  0  0  0  0  0  0
   -2.0719   -1.1900    0.3238 H   0  0  0  0  0  0  0  0  0  0  0  0
  1  2  1  0
  2  3  1  0
  3  4  2  0
  3  5  1  0
  5  6  2  0
  6  7  1  0
  7  8  1  0
  8  9  2  0
  9 10  1  0
 10 11  1  0
 11 12  1  0
  9 13  1  0
 13 14  2  0
 13 15  1  0
 15 16  1  0
 15 17  1  0
 15 18  1  0
 12  5  1  0
 11  7  2  0
  1 19  1  0
  1 20  1  0
  1 21  1  0
  6 22  1  0
  8 23  1  0
M  END
$$$$
[H]c1c([H])c(C(F)(F)F)c([H])c([H])c1C(=O)N([H])c1sc(N([H])c2c([H])c([H])c(N3C([H])([H])C([H])([H])N([H])C([H])([H])C3([H])[H])c([H])c2[H])nc1C(=O)N([H])[H]
     RDKit          3D

 55 58  0  0  0  0  0  0  0  0999 V2000
   -0.7611    2.0969    0.4150 N   0  0  0  0  0  0  0  0  0  0  0  0
   -1.7504    1.1294    0.6998 C   0  0  0  0  0  0  0  0  0  0  0  0
   -2.7754    1.4783    1.3020 O   0  0  0  0  0  0  0  0  0  0  0  0
   -1.5832   -0.2929    0.2876 C   0  0  0  0  0  0  0  0  0  0  0  0
   -0.3807   -0.7097    0.0404 N   0  0  0  0  0  0  0  0  0  0  0  0
   -0.1020   -1.9776   -0.1086 C   0  0  0  0  0  0  0  0  0  0  0  0
    1.2113   -2.5549   -0.3771 N   0  0  0  0  0  0  0  0  0  0  0  0
    2.3638   -1.7525   -0.5004 C   0  0  0  0  0  0  0  0  0  0  0  0
    2.3780   -0.3961   -0.7238 C   0  0  0  0  0  0  0  0  0  0  0  0
    3.5460    0.3188   -0.7559 C   0  0  0  0  0  0  0  0  0  0  0  0
    4.7863   -0.2848   -0.5673 C   0  0  0  0  0  0  0  0  0  0  0  0
    4.7647   -1.6367   -0.3506 C   0  0  0  0  0  0  0  0  0  0  0  0
    3.5996   -2.3650   -0.3147 C   0  0  0  0  0  0  0  0  0  0  0  0
    5.9744    0.4552   -0.5495 N   0  0  0  0  0  0  0  0  0  0  0  0
    6.8065    0.6337   -1.6820 C   0  0  0  0  0  0  0  0  0  0  0  0
    8.2472    0.8849   -1.2408 C   0  0  0  0  0  0  0  0  0  0  0  0
    8.4721    0.0910   -0.0368 N   0  0  0  0  0  0  0  0  0  0  0  0
    7.7546    0.6348    1.1150 C   0  0  0  0  0  0  0  0  0  0  0  0
    6.3543    1.0740    0.7154 C   0  0  0  0  0  0  0  0  0  0  0  0
   -1.6312   -2.6893    0.1061 S   0  0  0  0  0  0  0  0  0  0  0  0
   -2.5725   -1.2266    0.3808 C   0  0  0  0  0  0  0  0  0  0  0  0
   -3.9839   -1.1506    0.4148 N   0  0  0  0  0  0  0  0  0  0  0  0
   -4.7558   -0.2137   -0.2809 C   0  0  0  0  0  0  0  0  0  0  0  0
   -4.1757    0.5988   -1.1008 O   0  0  0  0  0  0  0  0  0  0  0  0
   -6.2034   -0.0564   -0.1500 C   0  0  0  0  0  0  0  0  0  0  0  0
   -7.1137   -0.4350   -1.0852 C   0  0  0  0  0  0  0  0  0  0  0  0
   -8.4750   -0.1976   -0.9240 C   0  0  0  0  0  0  0  0  0  0  0  0
   -8.9641    0.4358    0.2001 C   0  0  0  0  0  0  0  0  0  0  0  0
   -8.0581    0.8239    1.1583 C   0  0  0  0  0  0  0  0  0  0  0  0
   -6.7179    0.5844    0.9831 C   0  0  0  0  0  0  0  0  0  0  0  0
  -10.4120    0.7301    0.4326 C   0  0  0  0  0  0  0  0  0  0  0  0
  -11.2126   -0.0840   -0.3110 F   0  0  0  0  0  0  0  0  0  0  0  0
  -10.6897    2.0557    0.0522 F   0  0  0  0  0  0  0  0  0  0  0  0
  -10.6982    0.6757    1.7917 F   0  0  0  0  0  0  0  0  0  0  0  0
   -0.7343    3.0281    0.8467 H   0  0  0  0  0  0  0  0  0  0  0  0
    0.0009    1.8854   -0.2703 H   0  0  0  0  0  0  0  0  0  0  0  0
    1.2608   -3.5734   -0.4778 H   0  0  0  0  0  0  0  0  0  0  0  0
    1.4871    0.1597   -0.9152 H   0  0  0  0  0  0  0  0  0  0  0  0
    3.5962    1.3919   -0.9269 H   0  0  0  0  0  0  0  0  0  0  0  0
    5.6942   -2.1647   -0.1955 H   0  0  0  0  0  0  0  0  0  0  0  0
    3.6352   -3.4067   -0.1464 H   0  0  0  0  0  0  0  0  0  0  0  0
    6.4911    1.5359   -2.2548 H   0  0  0  0  0  0  0  0  0  0  0  0
    6.8154   -0.2271   -2.3776 H   0  0  0  0  0  0  0  0  0  0  0  0
    8.4461    1.9335   -1.0240 H   0  0  0  0  0  0  0  0  0  0  0  0
    8.9251    0.5035   -2.0134 H   0  0  0  0  0  0  0  0  0  0  0  0
    8.1390   -0.8910   -0.2191 H   0  0  0  0  0  0  0  0  0  0  0  0
    8.2734    1.4793    1.5667 H   0  0  0  0  0  0  0  0  0  0  0  0
    7.6832   -0.1909    1.8694 H   0  0  0  0  0  0  0  0  0  0  0  0
    5.6815    0.7893    1.5333 H   0  0  0  0  0  0  0  0  0  0  0  0
    6.2615    2.1654    0.6053 H   0  0  0  0  0  0  0  0  0  0  0  0
   -4.4795   -1.8561    1.0014 H   0  0  0  0  0  0  0  0  0  0  0  0
   -6.7759   -0.9386   -1.9937 H   0  0  0  0  0  0  0  0  0  0  0  0
   -9.1922   -0.4994   -1.6788 H   0  0  0  0  0  0  0  0  0  0  0  0
   -8.4463    1.3191    2.0530 H   0  0  0  0  0  0  0  0  0  0  0  0
   -6.0047    0.8787    1.7147 H   0  0  0  0  0  0  0  0  0  0  0  0
  1  2  1  0
  2  3  2  0
  2  4  1  0
  4  5  1  0
  5  6  2  0
  6  7  1  0
  7  8  1  0
  8  9  2  0
  9 10  1  0
 10 11  2  0
 11 12  1  0
 12 13  2  0
 11 14  1  0
 14 15  1  0
 15 16  1  0
 16 17  1  0
 17 18  1  0
 18 19  1  0
  6 20  1  0
 20 21  1  0
 21 22  1  0
 22 23  1  0
 23 24  2  0
 23 25  1  0
 25 26  2  0
 26 27  1  0
 27 28  2  0
 28 29  1  0
 29 30  2  0
 28 31  1  0
 31 32  1  0
 31 33  1  0
 31 34  1  0
 21  4  2  0
 30 25  1  0
 13  8  1  0
 19 14  1  0
  1 35  1  0
  1 36  1  0
  7 37  1  0
  9 38  1  0
 10 39  1  0
 12 40  1  0
 13 41  1  0
 15 42  1  0
 15 43  1  0
 16 44  1  0
 16 45  1  0
 17 46  1  0
 18 47  1  0
 18 48  1  0
 19 49  1  0
 19 50  1  0
 22 51  1  0
 26 52  1  0
 27 53  1  0
 29 54  1  0
 30 55  1  0
M  END
$$$$
[H]c1nn([H])c([H])c1C1=NC([H])([H])C(=O)N(C([H])([H])[H])c2c([H])c([H])c(-c3c([H])c(Cl)c([H])c(Cl)c3[H])c([H])c21
     RDKit          3D

 40 43  0  0  0  0  0  0  0  0999 V2000
   -2.1701   -3.0501   -2.1797 C   0  0  0  0  0  0  0  0  0  0  0  0
   -2.2484   -2.1944   -1.0393 N   0  0  0  0  0  0  0  0  0  0  0  0
   -1.0230   -1.5019   -0.7116 C   0  0  0  0  0  0  0  0  0  0  0  0
    0.1049   -2.1724   -1.1196 C   0  0  0  0  0  0  0  0  0  0  0  0
    1.3127   -1.6178   -0.7608 C   0  0  0  0  0  0  0  0  0  0  0  0
    1.4052   -0.4526   -0.0297 C   0  0  0  0  0  0  0  0  0  0  0  0
    0.2772    0.2217    0.3801 C   0  0  0  0  0  0  0  0  0  0  0  0
   -0.9360   -0.3134    0.0278 C   0  0  0  0  0  0  0  0  0  0  0  0
   -2.0369    0.5209    0.4743 C   0  0  0  0  0  0  0  0  0  0  0  0
   -3.1779    0.0409    0.9129 N   0  0  0  0  0  0  0  0  0  0  0  0
   -3.6064   -1.3506    1.0480 C   0  0  0  0  0  0  0  0  0  0  0  0
   -3.4537   -2.0636   -0.2831 C   0  0  0  0  0  0  0  0  0  0  0  0
   -4.4604   -2.5991   -0.7940 O   0  0  0  0  0  0  0  0  0  0  0  0
   -1.8734    1.9371    0.4265 C   0  0  0  0  0  0  0  0  0  0  0  0
   -2.8620    2.8017    0.9531 C   0  0  0  0  0  0  0  0  0  0  0  0
   -2.5364    4.0761    0.6920 N   0  0  0  0  0  0  0  0  0  0  0  0
   -1.3961    4.0896    0.0271 N   0  0  0  0  0  0  0  0  0  0  0  0
   -0.9968    2.8006   -0.1340 C   0  0  0  0  0  0  0  0  0  0  0  0
    2.6940    0.1082    0.3347 C   0  0  0  0  0  0  0  0  0  0  0  0
    2.8585    0.8308    1.5183 C   0  0  0  0  0  0  0  0  0  0  0  0
    4.1202    1.3266    1.7821 C   0  0  0  0  0  0  0  0  0  0  0  0
    4.3256    2.2358    3.2721 Cl  0  0  0  0  0  0  0  0  0  0  0  0
    5.1918    1.1476    0.9578 C   0  0  0  0  0  0  0  0  0  0  0  0
    4.9987    0.4306   -0.2024 C   0  0  0  0  0  0  0  0  0  0  0  0
    6.3501    0.1714   -1.3001 Cl  0  0  0  0  0  0  0  0  0  0  0  0
    3.7569   -0.0878   -0.5152 C   0  0  0  0  0  0  0  0  0  0  0  0
   -1.5518   -2.5866   -2.9759 H   0  0  0  0  0  0  0  0  0  0  0  0
   -1.8238   -4.0818   -1.9339 H   0  0  0  0  0  0  0  0  0  0  0  0
   -3.1819   -3.1705   -2.6137 H   0  0  0  0  0  0  0  0  0  0  0  0
   -0.0514   -3.0648   -1.6815 H   0  0  0  0  0  0  0  0  0  0  0  0
    2.2132   -2.1288   -1.0726 H   0  0  0  0  0  0  0  0  0  0  0  0
    0.2990    1.1072    0.9960 H   0  0  0  0  0  0  0  0  0  0  0  0
   -4.6578   -1.3397    1.3261 H   0  0  0  0  0  0  0  0  0  0  0  0
   -2.9896   -1.8958    1.7890 H   0  0  0  0  0  0  0  0  0  0  0  0
   -3.7571    2.5209    1.4896 H   0  0  0  0  0  0  0  0  0  0  0  0
   -0.8557    4.8912   -0.3321 H   0  0  0  0  0  0  0  0  0  0  0  0
   -0.0937    2.5199   -0.6815 H   0  0  0  0  0  0  0  0  0  0  0  0
    2.0366    0.9904    2.1896 H   0  0  0  0  0  0  0  0  0  0  0  0
    6.1401    1.5410    1.1921 H   0  0  0  0  0  0  0  0  0  0  0  0
    3.6553   -0.6384   -1.4283 H   0  0  0  0  0  0  0  0  0  0  0  0
  1  2  1  0
  2  3  1  0
  3  4  2  0
  4  5  1  0
  5  6  2  0
  6  7  1  0
  7  8  2  0
  8  9  1  0
  9 10  2  0
 10 11  1  0
 11 12  1  0
 12 13  2  0
  9 14  1  0
 14 15  1  0
 15 16  2  0
 16 17  1  0
 17 18  1  0
  6 19  1  0
 19 20  2  0
 20 21  1  0
 21 22  1  0
 21 23  2  0
 23 24  1  0
 24 25  1  0
 24 26  2  0
 12  2  1  0
 18 14  2  0
 26 19  1  0
  8  3  1  0
  1 27  1  0
  1 28  1  0
  1 29  1  0
  4 30  1  0
  5 31  1  0
  7 32  1  0
 11 33  1  0
 11 34  1  0
 15 35  1  0
 17 36  1  0
 18 37  1  0
 20 38  1  0
 23 39  1  0
 26 40  1  0
M  END
$$$$
[H]c1c([H])c(C(=O)OC([H])([H])n2c([H])c([H])c3c([H])c(OC([H])([H])C([H])([H])C([H])([H])N4C([H])([H])C([H])([H])C([H])([H])C4([H])[H])c([H])c([H])c32)c([H])c(N(C([H])([H])[H])C([H])([H])[H])c1[H]
     RDKit          3D

 62 65  0  0  0  0  0  0  0  0999 V2000
   -8.1642   -1.4206   -0.8384 C   0  0  0  0  0  0  0  0  0  0  0  0
   -8.3236   -0.2168   -0.0504 N   0  0  0  0  0  0  0  0  0  0  0  0
   -9.6188    0.0716    0.5181 C   0  0  0  0  0  0  0  0  0  0  0  0
   -7.2341    0.6634    0.1601 C   0  0  0  0  0  0  0  0  0  0  0  0
   -7.3834    1.8023    0.9160 C   0  0  0  0  0  0  0  0  0  0  0  0
   -6.3348    2.6770    1.1346 C   0  0  0  0  0  0  0  0  0  0  0  0
   -5.0990    2.4141    0.5859 C   0  0  0  0  0  0  0  0  0  0  0  0
   -4.9255    1.2855   -0.1713 C   0  0  0  0  0  0  0  0  0  0  0  0
   -5.9850    0.4203   -0.3801 C   0  0  0  0  0  0  0  0  0  0  0  0
   -3.5893    1.0338   -0.7475 C   0  0  0  0  0  0  0  0  0  0  0  0
   -2.6930    1.8653   -0.5087 O   0  0  0  0  0  0  0  0  0  0  0  0
   -3.2988   -0.0342   -1.5068 O   0  0  0  0  0  0  0  0  0  0  0  0
   -2.1988   -0.5214   -2.1533 C   0  0  0  0  0  0  0  0  0  0  0  0
   -1.1026   -0.8272   -1.2899 N   0  0  0  0  0  0  0  0  0  0  0  0
   -1.0584   -1.9762   -0.5479 C   0  0  0  0  0  0  0  0  0  0  0  0
    0.0604   -2.0181    0.2158 C   0  0  0  0  0  0  0  0  0  0  0  0
    0.7457   -0.8416   -0.0633 C   0  0  0  0  0  0  0  0  0  0  0  0
    1.9467   -0.3334    0.3878 C   0  0  0  0  0  0  0  0  0  0  0  0
    2.4725    0.8658   -0.0387 C   0  0  0  0  0  0  0  0  0  0  0  0
    3.6840    1.3563    0.4300 O   0  0  0  0  0  0  0  0  0  0  0  0
    4.3827    0.5721    1.3791 C   0  0  0  0  0  0  0  0  0  0  0  0
    5.6637    1.1720    1.8278 C   0  0  0  0  0  0  0  0  0  0  0  0
    6.7150    1.4066    0.8221 C   0  0  0  0  0  0  0  0  0  0  0  0
    7.2835    0.3512    0.1197 N   0  0  0  0  0  0  0  0  0  0  0  0
    6.5781   -0.3969   -0.8303 C   0  0  0  0  0  0  0  0  0  0  0  0
    6.7891   -1.8707   -0.5152 C   0  0  0  0  0  0  0  0  0  0  0  0
    7.8602   -1.9013    0.5584 C   0  0  0  0  0  0  0  0  0  0  0  0
    8.2526   -0.4667    0.7674 C   0  0  0  0  0  0  0  0  0  0  0  0
    1.7155    1.5563   -0.9688 C   0  0  0  0  0  0  0  0  0  0  0  0
    0.5220    1.0576   -1.4200 C   0  0  0  0  0  0  0  0  0  0  0  0
   -0.0002   -0.1492   -0.9850 C   0  0  0  0  0  0  0  0  0  0  0  0
   -7.7720   -2.2407   -0.1900 H   0  0  0  0  0  0  0  0  0  0  0  0
   -7.5181   -1.2480   -1.7081 H   0  0  0  0  0  0  0  0  0  0  0  0
   -9.1635   -1.7619   -1.2212 H   0  0  0  0  0  0  0  0  0  0  0  0
   -9.5830    0.1107    1.6226 H   0  0  0  0  0  0  0  0  0  0  0  0
   -9.9279    1.0814    0.1579 H   0  0  0  0  0  0  0  0  0  0  0  0
  -10.3710   -0.6778    0.2102 H   0  0  0  0  0  0  0  0  0  0  0  0
   -8.3498    2.0361    1.3614 H   0  0  0  0  0  0  0  0  0  0  0  0
   -6.4992    3.5762    1.7454 H   0  0  0  0  0  0  0  0  0  0  0  0
   -4.2790    3.1099    0.7639 H   0  0  0  0  0  0  0  0  0  0  0  0
   -5.7902   -0.4458   -0.9801 H   0  0  0  0  0  0  0  0  0  0  0  0
   -2.4501   -1.4693   -2.7169 H   0  0  0  0  0  0  0  0  0  0  0  0
   -1.8970    0.2491   -2.9227 H   0  0  0  0  0  0  0  0  0  0  0  0
   -1.8393   -2.7367   -0.5911 H   0  0  0  0  0  0  0  0  0  0  0  0
    0.3937   -2.7717    0.9028 H   0  0  0  0  0  0  0  0  0  0  0  0
    2.4795   -0.9428    1.1234 H   0  0  0  0  0  0  0  0  0  0  0  0
    3.7071    0.5497    2.2860 H   0  0  0  0  0  0  0  0  0  0  0  0
    4.4590   -0.4830    1.0647 H   0  0  0  0  0  0  0  0  0  0  0  0
    5.9982    0.5992    2.7224 H   0  0  0  0  0  0  0  0  0  0  0  0
    5.3970    2.1859    2.2607 H   0  0  0  0  0  0  0  0  0  0  0  0
    7.5585    1.9588    1.3488 H   0  0  0  0  0  0  0  0  0  0  0  0
    6.3334    2.1708    0.0983 H   0  0  0  0  0  0  0  0  0  0  0  0
    5.5447   -0.1570   -1.0493 H   0  0  0  0  0  0  0  0  0  0  0  0
    7.1161   -0.2611   -1.8256 H   0  0  0  0  0  0  0  0  0  0  0  0
    5.8245   -2.2449   -0.0921 H   0  0  0  0  0  0  0  0  0  0  0  0
    7.0592   -2.4705   -1.3958 H   0  0  0  0  0  0  0  0  0  0  0  0
    7.5043   -2.3675    1.4992 H   0  0  0  0  0  0  0  0  0  0  0  0
    8.6916   -2.5230    0.1702 H   0  0  0  0  0  0  0  0  0  0  0  0
    9.2275   -0.3286    0.2152 H   0  0  0  0  0  0  0  0  0  0  0  0
    8.4717   -0.2092    1.8128 H   0  0  0  0  0  0  0  0  0  0  0  0
    2.0983    2.4957   -1.3222 H   0  0  0  0  0  0  0  0  0  0  0  0
   -0.0865    1.5980   -2.1580 H   0  0  0  0  0  0  0  0  0  0  0  0
  1  2  1  0
  2  3  1  0
  2  4  1  0
  4  5  2  0
  5  6  1  0
  6  7  2  0
  7  8  1  0
  8  9  2  0
  8 10  1  0
 10 11  2  0
 10 12  1  0
 12 13  1  0
 13 14  1  0
 14 15  1  0
 15 16  2  0
 16 17  1  0
 17 18  2  0
 18 19  1  0
 19 20  1  0
 20 21  1  0
 21 22  1  0
 22 23  1  0
 23 24  1  0
 24 25  1  0
 25 26  1  0
 26 27  1  0
 27 28  1  0
 19 29  2  0
 29 30  1  0
 30 31  2  0
  9  4  1  0
 31 14  1  0
 31 17  1  0
 28 24  1  0
  1 32  1  0
  1 33  1  0
  1 34  1  0
  3 35  1  0
  3 36  1  0
  3 37  1  0
  5 38  1  0
  6 39  1  0
  7 40  1  0
  9 41  1  0
 13 42  1  0
 13 43  1  0
 15 44  1  0
 16 45  1  0
 18 46  1  0
 21 47  1  0
 21 48  1  0
 22 49  1  0
 22 50  1  0
 23 51  1  0
 23 52  1  0
 25 53  1  0
 25 54  1  0
 26 55  1  0
 26 56  1  0
 27 57  1  0
 27 58  1  0
 28 59  1  0
 28 60  1  0
 29 61  1  0
 30 62  1  0
M  END
$$$$
[H]N=C(c1c([H])c([H])c([H])c(C([H])([H])C([H])(C(=O)N2C([H])([H])C([H])([H])N(S(=O)(=O)C([H])([H])[H])C([H])([H])C2([H])[H])N([H])S(=O)(=O)c2c([H])c([H])c3c([H])c([H])c([H])c([H])c3c2[H])c1[H])N([H])[H]
     RDKit          3D

 66 69  0  0  0  0  0  0  0  0999 V2000
    1.7398   -4.8319   -0.6504 C   0  0  0  0  0  0  0  0  0  0  0  0
    2.2042   -3.1212   -0.5820 S   0  0  0  0  0  0  0  0  0  0  0  0
    3.6813   -3.0174   -0.3604 O   0  0  0  0  0  0  0  0  0  0  0  0
    1.5097   -2.4897    0.6171 O   0  0  0  0  0  0  0  0  0  0  0  0
    1.7824   -2.2382   -1.9554 N   0  0  0  0  0  0  0  0  0  0  0  0
    0.4073   -2.1455   -2.2657 C   0  0  0  0  0  0  0  0  0  0  0  0
   -0.0743   -0.7223   -2.0661 C   0  0  0  0  0  0  0  0  0  0  0  0
    0.7232    0.0299   -1.1102 N   0  0  0  0  0  0  0  0  0  0  0  0
    2.1981   -0.0653   -1.1547 C   0  0  0  0  0  0  0  0  0  0  0  0
    2.5777   -1.0840   -2.2118 C   0  0  0  0  0  0  0  0  0  0  0  0
    0.1827    0.8902   -0.1234 C   0  0  0  0  0  0  0  0  0  0  0  0
    0.9596    1.4441    0.6911 O   0  0  0  0  0  0  0  0  0  0  0  0
   -1.2515    1.1330   -0.0470 C   0  0  0  0  0  0  0  0  0  0  0  0
   -1.7599    1.9582   -1.2319 C   0  0  0  0  0  0  0  0  0  0  0  0
   -1.0938    3.2852   -1.2625 C   0  0  0  0  0  0  0  0  0  0  0  0
   -1.6654    4.3301   -0.5781 C   0  0  0  0  0  0  0  0  0  0  0  0
   -1.0757    5.5757   -0.5768 C   0  0  0  0  0  0  0  0  0  0  0  0
    0.0827    5.7967   -1.2518 C   0  0  0  0  0  0  0  0  0  0  0  0
    0.6846    4.7700   -1.9502 C   0  0  0  0  0  0  0  0  0  0  0  0
    0.0766    3.5157   -1.9427 C   0  0  0  0  0  0  0  0  0  0  0  0
    1.9199    5.0498   -2.6488 C   0  0  0  0  0  0  0  0  0  0  0  0
    2.4935    6.3416   -2.5910 N   0  0  0  0  0  0  0  0  0  0  0  0
    2.5060    4.1396   -3.3194 N   0  0  0  0  0  0  0  0  0  0  0  0
   -1.5559    1.8743    1.1780 N   0  0  0  0  0  0  0  0  0  0  0  0
   -2.6520    1.0044    2.1891 S   0  0  0  0  0  0  0  0  0  0  0  0
   -2.8869    1.8579    3.4068 O   0  0  0  0  0  0  0  0  0  0  0  0
   -3.9454    0.7015    1.4805 O   0  0  0  0  0  0  0  0  0  0  0  0
   -1.9952   -0.5267    2.7169 C   0  0  0  0  0  0  0  0  0  0  0  0
   -1.2522   -0.6106    3.8986 C   0  0  0  0  0  0  0  0  0  0  0  0
   -0.7176   -1.7953    4.3548 C   0  0  0  0  0  0  0  0  0  0  0  0
   -0.9050   -2.9599    3.6415 C   0  0  0  0  0  0  0  0  0  0  0  0
   -0.3688   -4.1586    4.0934 C   0  0  0  0  0  0  0  0  0  0  0  0
   -0.5465   -5.3326    3.3900 C   0  0  0  0  0  0  0  0  0  0  0  0
   -1.2775   -5.2635    2.2226 C   0  0  0  0  0  0  0  0  0  0  0  0
   -1.8103   -4.0734    1.7732 C   0  0  0  0  0  0  0  0  0  0  0  0
   -1.6357   -2.8930    2.4738 C   0  0  0  0  0  0  0  0  0  0  0  0
   -2.1729   -1.6984    2.0169 C   0  0  0  0  0  0  0  0  0  0  0  0
    0.7295   -4.9934   -1.0213 H   0  0  0  0  0  0  0  0  0  0  0  0
    1.8294   -5.2557    0.3834 H   0  0  0  0  0  0  0  0  0  0  0  0
    2.4613   -5.4104   -1.2809 H   0  0  0  0  0  0  0  0  0  0  0  0
    0.1594   -2.4896   -3.3102 H   0  0  0  0  0  0  0  0  0  0  0  0
   -0.1602   -2.7967   -1.5686 H   0  0  0  0  0  0  0  0  0  0  0  0
   -0.1387   -0.2235   -3.0498 H   0  0  0  0  0  0  0  0  0  0  0  0
   -1.1222   -0.7484   -1.6587 H   0  0  0  0  0  0  0  0  0  0  0  0
    2.5916   -0.4414   -0.1907 H   0  0  0  0  0  0  0  0  0  0  0  0
    2.6602    0.9210   -1.3296 H   0  0  0  0  0  0  0  0  0  0  0  0
    2.3588   -0.6211   -3.1942 H   0  0  0  0  0  0  0  0  0  0  0  0
    3.6492   -1.3484   -2.1358 H   0  0  0  0  0  0  0  0  0  0  0  0
   -1.8087    0.1948   -0.0214 H   0  0  0  0  0  0  0  0  0  0  0  0
   -1.6083    1.4539   -2.1971 H   0  0  0  0  0  0  0  0  0  0  0  0
   -2.8445    2.1370   -1.1400 H   0  0  0  0  0  0  0  0  0  0  0  0
   -2.5887    4.1407   -0.0437 H   0  0  0  0  0  0  0  0  0  0  0  0
   -1.5898    6.3580   -0.0098 H   0  0  0  0  0  0  0  0  0  0  0  0
    0.5149    6.8024   -1.2222 H   0  0  0  0  0  0  0  0  0  0  0  0
    0.5284    2.7206   -2.4789 H   0  0  0  0  0  0  0  0  0  0  0  0
    1.9596    7.2333   -2.7756 H   0  0  0  0  0  0  0  0  0  0  0  0
    3.5195    6.4935   -2.3518 H   0  0  0  0  0  0  0  0  0  0  0  0
    2.2233    3.1579   -3.4581 H   0  0  0  0  0  0  0  0  0  0  0  0
   -0.6730    1.9530    1.7162 H   0  0  0  0  0  0  0  0  0  0  0  0
   -1.1208    0.3150    4.4379 H   0  0  0  0  0  0  0  0  0  0  0  0
   -0.1443   -1.8504    5.2702 H   0  0  0  0  0  0  0  0  0  0  0  0
    0.2086   -4.1905    5.0231 H   0  0  0  0  0  0  0  0  0  0  0  0
   -0.1307   -6.2702    3.7394 H   0  0  0  0  0  0  0  0  0  0  0  0
   -1.4195   -6.1932    1.6618 H   0  0  0  0  0  0  0  0  0  0  0  0
   -2.3877   -4.0184    0.8523 H   0  0  0  0  0  0  0  0  0  0  0  0
   -2.7435   -1.6999    1.0897 H   0  0  0  0  0  0  0  0  0  0  0  0
  1  2  1  0
  2  3  2  0
  2  4  2  0
  2  5  1  0
  5  6  1  0
  6  7  1  0
  7  8  1  0
  8  9  1  0
  9 10  1  0
  8 11  1  0
 11 12  2  0
 11 13  1  0
 13 14  1  0
 14 15  1  0
 15 16  2  0
 16 17  1  0
 17 18  2  0
 18 19  1  0
 19 20  2  0
 19 21  1  0
 21 22  1  0
 21 23  2  3
 13 24  1  0
 24 25  1  0
 25 26  2  0
 25 27  2  0
 25 28  1  0
 28 29  2  0
 29 30  1  0
 30 31  2  0
 31 32  1  0
 32 33  2  0
 33 34  1  0
 34 35  2  0
 35 36  1  0
 36 37  2  0
 10  5  1  0
 20 15  1  0
 37 28  1  0
 36 31  1  0
  1 38  1  0
  1 39  1  0
  1 40  1  0
  6 41  1  0
  6 42  1  0
  7 43  1  0
  7 44  1  0
  9 45  1  0
  9 46  1  0
 10 47  1  0
 10 48  1  0
 13 49  1  0
 14 50  1  0
 14 51  1  0
 16 52  1  0
 17 53  1  0
 18 54  1  0
 20 55  1  0
 22 56  1  0
 22 57  1  0
 23 58  1  0
 24 59  1  0
 29 60  1  0
 30 61  1  0
 32 62  1  0
 33 63  1  0
 34 64  1  0
 35 65  1  0
 37 66  1  0
M  END
$$$$
[H]c1nc(N(C([H])([H])[H])C2([H])C([H])([H])C([H])([H])C([H])([H])C([H])(N3C([H])([H])c4c([H])c([H])c([H])c(N([H])C(=O)c5c([H])c([H])c6c([H])c([H])c([H])nc6c5[H])c4C3([H])[H])C2([H])[H])c([H])c([H])c1[H]
     RDKit          3D

 67 72  0  0  0  0  0  0  0  0999 V2000
   -4.8817   -3.2809    0.4192 C   0  0  0  0  0  0  0  0  0  0  0  0
   -4.5858   -1.8933    0.1582 N   0  0  0  0  0  0  0  0  0  0  0  0
   -3.2269   -1.5349   -0.1531 C   0  0  0  0  0  0  0  0  0  0  0  0
   -2.8068   -2.2852   -1.4090 C   0  0  0  0  0  0  0  0  0  0  0  0
   -2.2076   -1.2967   -2.3932 C   0  0  0  0  0  0  0  0  0  0  0  0
   -1.0991   -0.5023   -1.7828 C   0  0  0  0  0  0  0  0  0  0  0  0
   -1.6017    0.2313   -0.5707 C   0  0  0  0  0  0  0  0  0  0  0  0
   -3.0493   -0.0372   -0.3494 C   0  0  0  0  0  0  0  0  0  0  0  0
   -1.2958    1.6318   -0.7524 N   0  0  0  0  0  0  0  0  0  0  0  0
   -1.7118    2.4788    0.3104 C   0  0  0  0  0  0  0  0  0  0  0  0
   -0.7189    2.2518    1.3787 C   0  0  0  0  0  0  0  0  0  0  0  0
   -0.7314    2.3821    2.7554 C   0  0  0  0  0  0  0  0  0  0  0  0
    0.3808    2.0935    3.4862 C   0  0  0  0  0  0  0  0  0  0  0  0
    1.5617    1.6571    2.8463 C   0  0  0  0  0  0  0  0  0  0  0  0
    1.6160    1.5150    1.4888 C   0  0  0  0  0  0  0  0  0  0  0  0
    2.7271    1.0894    0.7505 N   0  0  0  0  0  0  0  0  0  0  0  0
    3.9758    0.7521    1.2898 C   0  0  0  0  0  0  0  0  0  0  0  0
    4.2164    0.8041    2.5020 O   0  0  0  0  0  0  0  0  0  0  0  0
    5.0995    0.3066    0.4209 C   0  0  0  0  0  0  0  0  0  0  0  0
    4.9237   -0.0734   -0.8830 C   0  0  0  0  0  0  0  0  0  0  0  0
    6.0057   -0.4799   -1.6725 C   0  0  0  0  0  0  0  0  0  0  0  0
    7.2704   -0.5057   -1.1522 C   0  0  0  0  0  0  0  0  0  0  0  0
    8.3717   -0.9080   -1.9206 C   0  0  0  0  0  0  0  0  0  0  0  0
    9.6407   -0.9266   -1.3765 C   0  0  0  0  0  0  0  0  0  0  0  0
    9.7759   -0.5370   -0.0608 C   0  0  0  0  0  0  0  0  0  0  0  0
    8.7053   -0.1515    0.6686 N   0  0  0  0  0  0  0  0  0  0  0  0
    7.4647   -0.1288    0.1512 C   0  0  0  0  0  0  0  0  0  0  0  0
    6.3956    0.2696    0.9207 C   0  0  0  0  0  0  0  0  0  0  0  0
    0.4412    1.8263    0.7883 C   0  0  0  0  0  0  0  0  0  0  0  0
    0.1734    1.7709   -0.6648 C   0  0  0  0  0  0  0  0  0  0  0  0
   -5.6459   -0.9561    0.2216 C   0  0  0  0  0  0  0  0  0  0  0  0
   -6.3601   -0.6982   -0.9234 C   0  0  0  0  0  0  0  0  0  0  0  0
   -7.4067    0.1956   -0.9577 C   0  0  0  0  0  0  0  0  0  0  0  0
   -7.7283    0.8418    0.2159 C   0  0  0  0  0  0  0  0  0  0  0  0
   -6.9921    0.5655    1.3626 C   0  0  0  0  0  0  0  0  0  0  0  0
   -5.9769   -0.3157    1.3505 N   0  0  0  0  0  0  0  0  0  0  0  0
   -3.9671   -3.8046    0.7960 H   0  0  0  0  0  0  0  0  0  0  0  0
   -5.2602   -3.8149   -0.4680 H   0  0  0  0  0  0  0  0  0  0  0  0
   -5.6954   -3.3614    1.1878 H   0  0  0  0  0  0  0  0  0  0  0  0
   -2.5952   -1.9046    0.6809 H   0  0  0  0  0  0  0  0  0  0  0  0
   -3.7199   -2.6932   -1.8762 H   0  0  0  0  0  0  0  0  0  0  0  0
   -2.1335   -3.1258   -1.1993 H   0  0  0  0  0  0  0  0  0  0  0  0
   -2.9944   -0.6104   -2.7570 H   0  0  0  0  0  0  0  0  0  0  0  0
   -1.8117   -1.8920   -3.2473 H   0  0  0  0  0  0  0  0  0  0  0  0
   -0.6664    0.1877   -2.5448 H   0  0  0  0  0  0  0  0  0  0  0  0
   -0.2404   -1.1593   -1.4795 H   0  0  0  0  0  0  0  0  0  0  0  0
   -1.0524   -0.1398    0.3172 H   0  0  0  0  0  0  0  0  0  0  0  0
   -3.7342    0.3313   -1.1106 H   0  0  0  0  0  0  0  0  0  0  0  0
   -3.3509    0.4125    0.6412 H   0  0  0  0  0  0  0  0  0  0  0  0
   -1.5419    3.5374   -0.0426 H   0  0  0  0  0  0  0  0  0  0  0  0
   -2.7581    2.3579    0.6402 H   0  0  0  0  0  0  0  0  0  0  0  0
   -1.6245    2.7121    3.2387 H   0  0  0  0  0  0  0  0  0  0  0  0
    0.3868    2.1892    4.5500 H   0  0  0  0  0  0  0  0  0  0  0  0
    2.3946    1.4483    3.4840 H   0  0  0  0  0  0  0  0  0  0  0  0
    2.6248    1.0139   -0.3264 H   0  0  0  0  0  0  0  0  0  0  0  0
    3.9463   -0.0689   -1.3222 H   0  0  0  0  0  0  0  0  0  0  0  0
    5.8749   -0.7787   -2.6941 H   0  0  0  0  0  0  0  0  0  0  0  0
    8.2045   -1.2046   -2.9529 H   0  0  0  0  0  0  0  0  0  0  0  0
   10.4937   -1.2382   -1.9715 H   0  0  0  0  0  0  0  0  0  0  0  0
   10.7654   -0.5486    0.3718 H   0  0  0  0  0  0  0  0  0  0  0  0
    6.5364    0.5686    1.9478 H   0  0  0  0  0  0  0  0  0  0  0  0
    0.4672    2.7007   -1.1827 H   0  0  0  0  0  0  0  0  0  0  0  0
    0.6372    0.9097   -1.1572 H   0  0  0  0  0  0  0  0  0  0  0  0
   -6.1141   -1.2068   -1.8663 H   0  0  0  0  0  0  0  0  0  0  0  0
   -7.9619    0.3916   -1.8617 H   0  0  0  0  0  0  0  0  0  0  0  0
   -8.5461    1.5420    0.1958 H   0  0  0  0  0  0  0  0  0  0  0  0
   -7.2824    1.0969    2.2568 H   0  0  0  0  0  0  0  0  0  0  0  0
  1  2  1  0
  2  3  1  0
  3  4  1  0
  4  5  1  0
  5  6  1  0
  6  7  1  0
  7  8  1  0
  7  9  1  0
  9 10  1  0
 10 11  1  0
 11 12  2  0
 12 13  1  0
 13 14  2  0
 14 15  1  0
 15 16  1  0
 16 17  1  0
 17 18  2  0
 17 19  1  0
 19 20  2  0
 20 21  1  0
 21 22  2  0
 22 23  1  0
 23 24  2  0
 24 25  1  0
 25 26  2  0
 26 27  1  0
 27 28  2  0
 15 29  2  0
 29 30  1  0
  2 31  1  0
 31 32  2  0
 32 33  1  0
 33 34  2  0
 34 35  1  0
 35 36  2  0
  8  3  1  0
 30  9  1  0
 36 31  1  0
 29 11  1  0
 28 19  1  0
 27 22  1  0
  1 37  1  0
  1 38  1  0
  1 39  1  0
  3 40  1  0
  4 41  1  0
  4 42  1  0
  5 43  1  0
  5 44  1  0
  6 45  1  0
  6 46  1  0
  7 47  1  0
  8 48  1  0
  8 49  1  0
 10 50  1  0
 10 51  1  0
 12 52  1  0
 13 53  1  0
 14 54  1  0
 16 55  1  0
 20 56  1  0
 21 57  1  0
 23 58  1  0
 24 59  1  0
 25 60  1  0
 28 61  1  0
 30 62  1  0
 30 63  1  0
 32 64  1  0
 33 65  1  0
 34 66  1  0
 35 67  1  0
M  END
$$$$
[H]OP(=O)(O[H])C([H])([H])N([H])C1([H])C([H])([H])C([H])([H])C([H])(n2c(C([H])([H])[H])nc3c([H])c([H])c([H])c([H])c3c2=O)C([H])([H])C1([H])[H]
     RDKit          3D

 46 48  0  0  0  0  0  0  0  0999 V2000
   -2.3482   -2.4525   -1.5517 C   0  0  0  0  0  0  0  0  0  0  0  0
   -2.7753   -1.2208   -0.8138 C   0  0  0  0  0  0  0  0  0  0  0  0
   -4.0783   -0.9190   -0.6687 N   0  0  0  0  0  0  0  0  0  0  0  0
   -4.5183    0.1733   -0.0174 C   0  0  0  0  0  0  0  0  0  0  0  0
   -5.8678    0.4638    0.1210 C   0  0  0  0  0  0  0  0  0  0  0  0
   -6.2630    1.6068    0.8058 C   0  0  0  0  0  0  0  0  0  0  0  0
   -5.2852    2.4264    1.3328 C   0  0  0  0  0  0  0  0  0  0  0  0
   -3.9364    2.1249    1.1876 C   0  0  0  0  0  0  0  0  0  0  0  0
   -3.5385    0.9918    0.5088 C   0  0  0  0  0  0  0  0  0  0  0  0
   -2.2042    0.6689    0.3519 C   0  0  0  0  0  0  0  0  0  0  0  0
   -1.3244    1.4346    0.8430 O   0  0  0  0  0  0  0  0  0  0  0  0
   -1.7850   -0.4299   -0.3035 N   0  0  0  0  0  0  0  0  0  0  0  0
   -0.3973   -0.7779   -0.4711 C   0  0  0  0  0  0  0  0  0  0  0  0
    0.3135    0.2845   -1.2428 C   0  0  0  0  0  0  0  0  0  0  0  0
    1.6283    0.6125   -0.5700 C   0  0  0  0  0  0  0  0  0  0  0  0
    2.3730   -0.7255   -0.4738 C   0  0  0  0  0  0  0  0  0  0  0  0
    1.7026   -1.5355    0.5764 C   0  0  0  0  0  0  0  0  0  0  0  0
    0.2803   -1.1087    0.8398 C   0  0  0  0  0  0  0  0  0  0  0  0
    3.7790   -0.5396   -0.3383 N   0  0  0  0  0  0  0  0  0  0  0  0
    4.2115    0.1485    0.8360 C   0  0  0  0  0  0  0  0  0  0  0  0
    6.0143    0.3066    0.8252 P   0  0  0  0  0  0  0  0  0  0  0  0
    6.5020    1.8145    1.4314 O   0  0  0  0  0  0  0  0  0  0  0  0
    6.6372    0.0731   -0.7455 O   0  0  0  0  0  0  0  0  0  0  0  0
    6.6277   -0.7620    1.6940 O   0  0  0  0  0  0  0  0  0  0  0  0
   -1.7929   -3.1496   -0.8951 H   0  0  0  0  0  0  0  0  0  0  0  0
   -3.2807   -2.9906   -1.8541 H   0  0  0  0  0  0  0  0  0  0  0  0
   -1.7644   -2.2184   -2.4480 H   0  0  0  0  0  0  0  0  0  0  0  0
   -6.6170   -0.2031   -0.3057 H   0  0  0  0  0  0  0  0  0  0  0  0
   -7.3022    1.8478    0.9236 H   0  0  0  0  0  0  0  0  0  0  0  0
   -5.5945    3.3043    1.8592 H   0  0  0  0  0  0  0  0  0  0  0  0
   -3.1573    2.7639    1.5994 H   0  0  0  0  0  0  0  0  0  0  0  0
   -0.3498   -1.7216   -1.0673 H   0  0  0  0  0  0  0  0  0  0  0  0
   -0.3034    1.1897   -1.4296 H   0  0  0  0  0  0  0  0  0  0  0  0
    0.5998   -0.0774   -2.2734 H   0  0  0  0  0  0  0  0  0  0  0  0
    2.2105    1.3402   -1.1620 H   0  0  0  0  0  0  0  0  0  0  0  0
    1.5094    1.0473    0.4407 H   0  0  0  0  0  0  0  0  0  0  0  0
    2.2083   -1.2444   -1.4639 H   0  0  0  0  0  0  0  0  0  0  0  0
    2.2230   -1.5566    1.5529 H   0  0  0  0  0  0  0  0  0  0  0  0
    1.7085   -2.6133    0.2412 H   0  0  0  0  0  0  0  0  0  0  0  0
   -0.2543   -2.0273    1.2230 H   0  0  0  0  0  0  0  0  0  0  0  0
    0.1733   -0.3544    1.6168 H   0  0  0  0  0  0  0  0  0  0  0  0
    4.1251   -0.0689   -1.2039 H   0  0  0  0  0  0  0  0  0  0  0  0
    3.9448   -0.5115    1.7139 H   0  0  0  0  0  0  0  0  0  0  0  0
    3.7227    1.1395    0.9806 H   0  0  0  0  0  0  0  0  0  0  0  0
    5.8459    2.5321    1.2015 H   0  0  0  0  0  0  0  0  0  0  0  0
    6.3976    0.9133   -1.2378 H   0  0  0  0  0  0  0  0  0  0  0  0
  1  2  1  0
  2  3  2  0
  3  4  1  0
  4  5  2  0
  5  6  1  0
  6  7  2  0
  7  8  1  0
  8  9  2  0
  9 10  1  0
 10 11  2  0
 10 12  1  0
 12 13  1  0
 13 14  1  0
 14 15  1  0
 15 16  1  0
 16 17  1  0
 17 18  1  0
 16 19  1  0
 19 20  1  0
 20 21  1  0
 21 22  1  0
 21 23  1  0
 21 24  2  0
 12  2  1  0
 18 13  1  0
  9  4  1  0
  1 25  1  0
  1 26  1  0
  1 27  1  0
  5 28  1  0
  6 29  1  0
  7 30  1  0
  8 31  1  0
 13 32  1  0
 14 33  1  0
 14 34  1  0
 15 35  1  0
 15 36  1  0
 16 37  1  0
 17 38  1  0
 17 39  1  0
 18 40  1  0
 18 41  1  0
 19 42  1  0
 20 43  1  0
 20 44  1  0
 22 45  1  0
 23 46  1  0
M  END
$$$$
[H]c1c([H])c([H])c(C(=O)N([H])C([H])(C(=O)N([H])C([H])(C(=O)N([H])C([H])(C(=O)N([H])C([H])(C(=O)OC([H])([H])C([H])([H])[H])C([H])([H])c2c([H])c([H])c([H])c([H])c2[H])C([H])([H])C([H])(C([H])([H])[H])C([H])([H])[H])C([H])([H])C([H])(C([H])([H])[H])C([H])([H])[H])C([H])([H])c2c([H])c([H])c([H])c([H])c2[H])c([H])c1[H]
     RDKit          3D

 99101  0  0  0  0  0  0  0  0999 V2000
    8.6372    2.4704   -0.9550 C   0  0  0  0  0  0  0  0  0  0  0  0
    8.1433    1.2990   -1.7449 C   0  0  0  0  0  0  0  0  0  0  0  0
    7.2560    0.4574   -1.0167 O   0  0  0  0  0  0  0  0  0  0  0  0
    6.0617    0.9606   -0.5045 C   0  0  0  0  0  0  0  0  0  0  0  0
    5.8510    2.1707   -0.7255 O   0  0  0  0  0  0  0  0  0  0  0  0
    5.1412    0.1015    0.2280 C   0  0  0  0  0  0  0  0  0  0  0  0
    5.6935   -0.2798    1.5697 C   0  0  0  0  0  0  0  0  0  0  0  0
    6.9588   -1.0099    1.5529 C   0  0  0  0  0  0  0  0  0  0  0  0
    8.1774   -0.3856    1.7156 C   0  0  0  0  0  0  0  0  0  0  0  0
    9.3577   -1.0920    1.6965 C   0  0  0  0  0  0  0  0  0  0  0  0
    9.3569   -2.4514    1.5131 C   0  0  0  0  0  0  0  0  0  0  0  0
    8.1454   -3.0768    1.3510 C   0  0  0  0  0  0  0  0  0  0  0  0
    6.9539   -2.3940    1.3662 C   0  0  0  0  0  0  0  0  0  0  0  0
    3.9066    0.8463    0.5238 N   0  0  0  0  0  0  0  0  0  0  0  0
    2.6616    0.4756   -0.0407 C   0  0  0  0  0  0  0  0  0  0  0  0
    2.7850   -0.5586   -0.8309 O   0  0  0  0  0  0  0  0  0  0  0  0
    1.3499    1.0114    0.1054 C   0  0  0  0  0  0  0  0  0  0  0  0
    0.9605    2.3672   -0.3138 C   0  0  0  0  0  0  0  0  0  0  0  0
    1.5828    3.5678    0.2545 C   0  0  0  0  0  0  0  0  0  0  0  0
    1.4684    3.6954    1.7638 C   0  0  0  0  0  0  0  0  0  0  0  0
    2.8858    4.0272   -0.3119 C   0  0  0  0  0  0  0  0  0  0  0  0
    0.4371    0.1254   -0.6916 N   0  0  0  0  0  0  0  0  0  0  0  0
   -0.8122   -0.2817   -0.1827 C   0  0  0  0  0  0  0  0  0  0  0  0
   -1.2514    0.0619    0.9368 O   0  0  0  0  0  0  0  0  0  0  0  0
   -1.7415   -1.1934   -0.9890 C   0  0  0  0  0  0  0  0  0  0  0  0
   -1.1871   -1.3313   -2.3311 C   0  0  0  0  0  0  0  0  0  0  0  0
   -1.9453   -2.1576   -3.3119 C   0  0  0  0  0  0  0  0  0  0  0  0
   -1.0955   -2.1792   -4.5999 C   0  0  0  0  0  0  0  0  0  0  0  0
   -3.2591   -1.5299   -3.7566 C   0  0  0  0  0  0  0  0  0  0  0  0
   -3.0819   -0.7752   -0.8646 N   0  0  0  0  0  0  0  0  0  0  0  0
   -3.9213   -1.1621    0.2500 C   0  0  0  0  0  0  0  0  0  0  0  0
   -3.3933   -1.8842    1.1255 O   0  0  0  0  0  0  0  0  0  0  0  0
   -5.3267   -0.7483    0.4030 C   0  0  0  0  0  0  0  0  0  0  0  0
   -6.3234   -1.8733    0.2302 C   0  0  0  0  0  0  0  0  0  0  0  0
   -6.3060   -2.5649   -1.0512 C   0  0  0  0  0  0  0  0  0  0  0  0
   -7.0488   -2.1326   -2.1419 C   0  0  0  0  0  0  0  0  0  0  0  0
   -7.0598   -2.8116   -3.3292 C   0  0  0  0  0  0  0  0  0  0  0  0
   -6.2998   -3.9590   -3.4183 C   0  0  0  0  0  0  0  0  0  0  0  0
   -5.5485   -4.4168   -2.3517 C   0  0  0  0  0  0  0  0  0  0  0  0
   -5.5474   -3.7317   -1.1790 C   0  0  0  0  0  0  0  0  0  0  0  0
   -5.5377   -0.2268    1.7781 N   0  0  0  0  0  0  0  0  0  0  0  0
   -5.9674    1.0962    1.9828 C   0  0  0  0  0  0  0  0  0  0  0  0
   -6.1825    1.8639    1.0090 O   0  0  0  0  0  0  0  0  0  0  0  0
   -6.1705    1.6063    3.3227 C   0  0  0  0  0  0  0  0  0  0  0  0
   -6.3505    2.9837    3.4899 C   0  0  0  0  0  0  0  0  0  0  0  0
   -6.5492    3.5547    4.7190 C   0  0  0  0  0  0  0  0  0  0  0  0
   -6.5786    2.7607    5.8654 C   0  0  0  0  0  0  0  0  0  0  0  0
   -6.4009    1.4175    5.6819 C   0  0  0  0  0  0  0  0  0  0  0  0
   -6.2006    0.8295    4.4557 C   0  0  0  0  0  0  0  0  0  0  0  0
    9.6778    2.7228   -1.3050 H   0  0  0  0  0  0  0  0  0  0  0  0
    8.0424    3.3918   -1.1955 H   0  0  0  0  0  0  0  0  0  0  0  0
    8.6944    2.2986    0.1321 H   0  0  0  0  0  0  0  0  0  0  0  0
    9.0402    0.6694   -1.9755 H   0  0  0  0  0  0  0  0  0  0  0  0
    7.7015    1.6160   -2.6929 H   0  0  0  0  0  0  0  0  0  0  0  0
    4.8561   -0.8140   -0.3540 H   0  0  0  0  0  0  0  0  0  0  0  0
    4.9307   -0.8217    2.1909 H   0  0  0  0  0  0  0  0  0  0  0  0
    5.8688    0.6664    2.1700 H   0  0  0  0  0  0  0  0  0  0  0  0
    8.1968    0.7055    1.8638 H   0  0  0  0  0  0  0  0  0  0  0  0
   10.3130   -0.5958    1.8250 H   0  0  0  0  0  0  0  0  0  0  0  0
   10.2942   -3.0253    1.4968 H   0  0  0  0  0  0  0  0  0  0  0  0
    8.1573   -4.1451    1.2069 H   0  0  0  0  0  0  0  0  0  0  0  0
    5.9924   -2.8769    1.2377 H   0  0  0  0  0  0  0  0  0  0  0  0
    4.0180    1.6307    1.1720 H   0  0  0  0  0  0  0  0  0  0  0  0
    0.9364    0.8629    1.1761 H   0  0  0  0  0  0  0  0  0  0  0  0
    1.0228    2.4545   -1.4330 H   0  0  0  0  0  0  0  0  0  0  0  0
   -0.1574    2.4474   -0.1158 H   0  0  0  0  0  0  0  0  0  0  0  0
    0.8527    4.4285   -0.0830 H   0  0  0  0  0  0  0  0  0  0  0  0
    1.6393    4.7679    2.0163 H   0  0  0  0  0  0  0  0  0  0  0  0
    2.2236    3.1148    2.3082 H   0  0  0  0  0  0  0  0  0  0  0  0
    0.4363    3.4579    2.0317 H   0  0  0  0  0  0  0  0  0  0  0  0
    2.8578    5.0482   -0.7401 H   0  0  0  0  0  0  0  0  0  0  0  0
    3.6934    4.0636    0.4542 H   0  0  0  0  0  0  0  0  0  0  0  0
    3.1836    3.3743   -1.1749 H   0  0  0  0  0  0  0  0  0  0  0  0
    0.7391   -0.1810   -1.6295 H   0  0  0  0  0  0  0  0  0  0  0  0
   -1.6669   -2.1869   -0.4177 H   0  0  0  0  0  0  0  0  0  0  0  0
   -0.1614   -1.8485   -2.2545 H   0  0  0  0  0  0  0  0  0  0  0  0
   -0.9146   -0.3274   -2.8052 H   0  0  0  0  0  0  0  0  0  0  0  0
   -2.1429   -3.1473   -2.9223 H   0  0  0  0  0  0  0  0  0  0  0  0
   -0.6293   -1.1816   -4.7272 H   0  0  0  0  0  0  0  0  0  0  0  0
   -1.7239   -2.4633   -5.4596 H   0  0  0  0  0  0  0  0  0  0  0  0
   -0.2902   -2.9021   -4.3917 H   0  0  0  0  0  0  0  0  0  0  0  0
   -3.4601   -1.8643   -4.8206 H   0  0  0  0  0  0  0  0  0  0  0  0
   -4.0779   -1.7747   -3.1006 H   0  0  0  0  0  0  0  0  0  0  0  0
   -3.0735   -0.4332   -3.8266 H   0  0  0  0  0  0  0  0  0  0  0  0
   -3.5857   -0.1342   -1.5394 H   0  0  0  0  0  0  0  0  0  0  0  0
   -5.5593    0.0563   -0.2849 H   0  0  0  0  0  0  0  0  0  0  0  0
   -7.3598   -1.5315    0.4608 H   0  0  0  0  0  0  0  0  0  0  0  0
   -6.1240   -2.6432    1.0372 H   0  0  0  0  0  0  0  0  0  0  0  0
   -7.6320   -1.2319   -2.0346 H   0  0  0  0  0  0  0  0  0  0  0  0
   -7.6597   -2.4236   -4.1437 H   0  0  0  0  0  0  0  0  0  0  0  0
   -6.3051   -4.4995   -4.3534 H   0  0  0  0  0  0  0  0  0  0  0  0
   -4.9875   -5.3251   -2.5217 H   0  0  0  0  0  0  0  0  0  0  0  0
   -4.9478   -4.1151   -0.3587 H   0  0  0  0  0  0  0  0  0  0  0  0
   -5.3590   -0.8583    2.5499 H   0  0  0  0  0  0  0  0  0  0  0  0
   -6.3327    3.6192    2.6129 H   0  0  0  0  0  0  0  0  0  0  0  0
   -6.6840    4.6353    4.7866 H   0  0  0  0  0  0  0  0  0  0  0  0
   -6.7362    3.2537    6.8045 H   0  0  0  0  0  0  0  0  0  0  0  0
   -6.4175    0.7641    6.5445 H   0  0  0  0  0  0  0  0  0  0  0  0
   -6.0646   -0.2414    4.3356 H   0  0  0  0  0  0  0  0  0  0  0  0
  1  2  1  0
  2  3  1  0
  3  4  1  0
  4  5  2  0
  4  6  1  0
  6  7  1  0
  7  8  1  0
  8  9  2  0
  9 10  1  0
 10 11  2  0
 11 12  1  0
 12 13  2  0
  6 14  1  0
 14 15  1  0
 15 16  2  0
 15 17  1  0
 17 18  1  0
 18 19  1  0
 19 20  1  0
 19 21  1  0
 17 22  1  0
 22 23  1  0
 23 24  2  0
 23 25  1  0
 25 26  1  0
 26 27  1  0
 27 28  1  0
 27 29  1  0
 25 30  1  0
 30 31  1  0
 31 32  2  0
 31 33  1  0
 33 34  1  0
 34 35  1  0
 35 36  2  0
 36 37  1  0
 37 38  2  0
 38 39  1  0
 39 40  2  0
 33 41  1  0
 41 42  1  0
 42 43  2  0
 42 44  1  0
 44 45  2  0
 45 46  1  0
 46 47  2  0
 47 48  1  0
 48 49  2  0
 13  8  1  0
 40 35  1  0
 49 44  1  0
  1 50  1  0
  1 51  1  0
  1 52  1  0
  2 53  1  0
  2 54  1  0
  6 55  1  0
  7 56  1  0
  7 57  1  0
  9 58  1  0
 10 59  1  0
 11 60  1  0
 12 61  1  0
 13 62  1  0
 14 63  1  0
 17 64  1  0
 18 65  1  0
 18 66  1  0
 19 67  1  0
 20 68  1  0
 20 69  1  0
 20 70  1  0
 21 71  1  0
 21 72  1  0
 21 73  1  0
 22 74  1  0
 25 75  1  0
 26 76  1  0
 26 77  1  0
 27 78  1  0
 28 79  1  0
 28 80  1  0
 28 81  1  0
 29 82  1  0
 29 83  1  0
 29 84  1  0
 30 85  1  0
 33 86  1  0
 34 87  1  0
 34 88  1  0
 36 89  1  0
 37 90  1  0
 38 91  1  0
 39 92  1  0
 40 93  1  0
 41 94  1  0
 45 95  1  0
 46 96  1  0
 47 97  1  0
 48 98  1  0
 49 99  1  0
M  END
$$$$
[H]Oc1c(-c2c([H])c([H])c([H])c3c([H])c([H])c([H])c([H])c23)c([H])c2c(O[H])c([H])c(C([H])([H])C([H])([H])C([H])([H])C([H])([H])C([H])([H])C([H])([H])C([H])([H])[H])nc2c1[H]
     RDKit          3D

 56 59  0  0  0  0  0  0  0  0999 V2000
    7.8403    0.7057    2.0282 C   0  0  0  0  0  0  0  0  0  0  0  0
    8.2747    0.6341    0.5888 C   0  0  0  0  0  0  0  0  0  0  0  0
    7.3411   -0.3506   -0.1277 C   0  0  0  0  0  0  0  0  0  0  0  0
    5.9287    0.1355   -0.0373 C   0  0  0  0  0  0  0  0  0  0  0  0
    5.0282   -0.8580   -0.7536 C   0  0  0  0  0  0  0  0  0  0  0  0
    3.5835   -0.4028   -0.6861 C   0  0  0  0  0  0  0  0  0  0  0  0
    2.7187   -1.4240   -1.4022 C   0  0  0  0  0  0  0  0  0  0  0  0
    1.3176   -0.9192   -1.2873 C   0  0  0  0  0  0  0  0  0  0  0  0
    0.7683   -0.0968   -2.2285 C   0  0  0  0  0  0  0  0  0  0  0  0
   -0.5431    0.3514   -2.0520 C   0  0  0  0  0  0  0  0  0  0  0  0
   -1.0893    1.1789   -3.0024 O   0  0  0  0  0  0  0  0  0  0  0  0
   -1.2427   -0.0468   -0.9381 C   0  0  0  0  0  0  0  0  0  0  0  0
   -2.5329    0.3450   -0.6763 C   0  0  0  0  0  0  0  0  0  0  0  0
   -3.2324   -0.0454    0.4317 C   0  0  0  0  0  0  0  0  0  0  0  0
   -4.5680    0.4078    0.7442 C   0  0  0  0  0  0  0  0  0  0  0  0
   -4.7682    1.0470    1.9743 C   0  0  0  0  0  0  0  0  0  0  0  0
   -5.9751    1.5657    2.3724 C   0  0  0  0  0  0  0  0  0  0  0  0
   -7.0323    1.4392    1.4982 C   0  0  0  0  0  0  0  0  0  0  0  0
   -6.9234    0.8252    0.2715 C   0  0  0  0  0  0  0  0  0  0  0  0
   -8.0173    0.7110   -0.5646 C   0  0  0  0  0  0  0  0  0  0  0  0
   -7.8980    0.0842   -1.7765 C   0  0  0  0  0  0  0  0  0  0  0  0
   -6.6636   -0.4165   -2.1158 C   0  0  0  0  0  0  0  0  0  0  0  0
   -5.5500   -0.3174   -1.3005 C   0  0  0  0  0  0  0  0  0  0  0  0
   -5.6681    0.3155   -0.0782 C   0  0  0  0  0  0  0  0  0  0  0  0
   -2.5771   -0.8840    1.3251 C   0  0  0  0  0  0  0  0  0  0  0  0
   -3.2823   -1.2806    2.4483 O   0  0  0  0  0  0  0  0  0  0  0  0
   -1.3011   -1.3041    1.1194 C   0  0  0  0  0  0  0  0  0  0  0  0
   -0.6417   -0.8826   -0.0108 C   0  0  0  0  0  0  0  0  0  0  0  0
    0.6105   -1.2900   -0.2128 N   0  0  0  0  0  0  0  0  0  0  0  0
    6.9185    1.3340    2.1384 H   0  0  0  0  0  0  0  0  0  0  0  0
    7.6231   -0.3214    2.3890 H   0  0  0  0  0  0  0  0  0  0  0  0
    8.6589    1.1749    2.6505 H   0  0  0  0  0  0  0  0  0  0  0  0
    8.1261    1.6441    0.1153 H   0  0  0  0  0  0  0  0  0  0  0  0
    9.3107    0.3026    0.4841 H   0  0  0  0  0  0  0  0  0  0  0  0
    7.4962   -1.3286    0.3709 H   0  0  0  0  0  0  0  0  0  0  0  0
    7.7019   -0.4177   -1.1731 H   0  0  0  0  0  0  0  0  0  0  0  0
    5.6214    0.2597    1.0094 H   0  0  0  0  0  0  0  0  0  0  0  0
    5.8501    1.1232   -0.5379 H   0  0  0  0  0  0  0  0  0  0  0  0
    5.3420   -0.8582   -1.8234 H   0  0  0  0  0  0  0  0  0  0  0  0
    5.1851   -1.8364   -0.3034 H   0  0  0  0  0  0  0  0  0  0  0  0
    3.4868    0.5941   -1.1223 H   0  0  0  0  0  0  0  0  0  0  0  0
    3.2330   -0.3456    0.3623 H   0  0  0  0  0  0  0  0  0  0  0  0
    3.0358   -1.5596   -2.4579 H   0  0  0  0  0  0  0  0  0  0  0  0
    2.7692   -2.4161   -0.9194 H   0  0  0  0  0  0  0  0  0  0  0  0
    1.3207    0.2270   -3.1219 H   0  0  0  0  0  0  0  0  0  0  0  0
   -2.0107    1.5680   -2.9950 H   0  0  0  0  0  0  0  0  0  0  0  0
   -3.0153    1.0020   -1.3846 H   0  0  0  0  0  0  0  0  0  0  0  0
   -3.9220    1.1265    2.6305 H   0  0  0  0  0  0  0  0  0  0  0  0
   -6.1276    2.0583    3.3248 H   0  0  0  0  0  0  0  0  0  0  0  0
   -7.9949    1.8435    1.7941 H   0  0  0  0  0  0  0  0  0  0  0  0
   -8.9696    1.1190   -0.2585 H   0  0  0  0  0  0  0  0  0  0  0  0
   -8.7619   -0.0142   -2.4513 H   0  0  0  0  0  0  0  0  0  0  0  0
   -6.5543   -0.9098   -3.0581 H   0  0  0  0  0  0  0  0  0  0  0  0
   -4.6024   -0.7430   -1.6078 H   0  0  0  0  0  0  0  0  0  0  0  0
   -2.8332   -1.8886    3.1127 H   0  0  0  0  0  0  0  0  0  0  0  0
   -0.7926   -1.9651    1.8285 H   0  0  0  0  0  0  0  0  0  0  0  0
  1  2  1  0
  2  3  1  0
  3  4  1  0
  4  5  1  0
  5  6  1  0
  6  7  1  0
  7  8  1  0
  8  9  2  0
  9 10  1  0
 10 11  1  0
 10 12  2  0
 12 13  1  0
 13 14  2  0
 14 15  1  0
 15 16  2  0
 16 17  1  0
 17 18  2  0
 18 19  1  0
 19 20  2  0
 20 21  1  0
 21 22  2  0
 22 23  1  0
 23 24  2  0
 14 25  1  0
 25 26  1  0
 25 27  2  0
 27 28  1  0
 28 29  2  0
 29  8  1  0
 28 12  1  0
 24 15  1  0
 24 19  1  0
  1 30  1  0
  1 31  1  0
  1 32  1  0
  2 33  1  0
  2 34  1  0
  3 35  1  0
  3 36  1  0
  4 37  1  0
  4 38  1  0
  5 39  1  0
  5 40  1  0
  6 41  1  0
  6 42  1  0
  7 43  1  0
  7 44  1  0
  9 45  1  0
 11 46  1  0
 13 47  1  0
 16 48  1  0
 17 49  1  0
 18 50  1  0
 20 51  1  0
 21 52  1  0
 22 53  1  0
 23 54  1  0
 26 55  1  0
 27 56  1  0
M  END
$$$$
[H]Oc1c([H])c([H])c([H])c([H])c1N([H])c1nc(N([H])c2c([H])c([H])c(N3C([H])([H])C([H])([H])OC([H])([H])C3([H])[H])c([H])c2[H])nc([H])c1[H]
     RDKit          3D

 48 51  0  0  0  0  0  0  0  0999 V2000
   -7.8890   -0.6280   -0.9927 O   0  0  0  0  0  0  0  0  0  0  0  0
   -7.1621   -0.4481    0.1426 C   0  0  0  0  0  0  0  0  0  0  0  0
   -7.8366   -0.3726    1.3661 C   0  0  0  0  0  0  0  0  0  0  0  0
   -7.1405   -0.1924    2.5267 C   0  0  0  0  0  0  0  0  0  0  0  0
   -5.7801   -0.0855    2.4927 C   0  0  0  0  0  0  0  0  0  0  0  0
   -5.1186   -0.1646    1.2459 C   0  0  0  0  0  0  0  0  0  0  0  0
   -5.7653   -0.3429    0.0650 C   0  0  0  0  0  0  0  0  0  0  0  0
   -5.1360   -0.4242   -1.1789 N   0  0  0  0  0  0  0  0  0  0  0  0
   -3.7558   -0.3380   -1.4178 C   0  0  0  0  0  0  0  0  0  0  0  0
   -3.3380   -0.4469   -2.7612 C   0  0  0  0  0  0  0  0  0  0  0  0
   -2.0068   -0.3764   -3.1108 C   0  0  0  0  0  0  0  0  0  0  0  0
   -1.1414   -0.1996   -2.1049 N   0  0  0  0  0  0  0  0  0  0  0  0
   -1.4524   -0.0874   -0.8127 C   0  0  0  0  0  0  0  0  0  0  0  0
   -0.5511    0.0984    0.2497 N   0  0  0  0  0  0  0  0  0  0  0  0
    0.8492    0.1932    0.1800 C   0  0  0  0  0  0  0  0  0  0  0  0
    1.6255   -0.1809   -0.8813 C   0  0  0  0  0  0  0  0  0  0  0  0
    3.0116   -0.0394   -0.8973 C   0  0  0  0  0  0  0  0  0  0  0  0
    3.6867    0.4900    0.1647 C   0  0  0  0  0  0  0  0  0  0  0  0
    2.9054    0.8755    1.2555 C   0  0  0  0  0  0  0  0  0  0  0  0
    1.5488    0.7339    1.2639 C   0  0  0  0  0  0  0  0  0  0  0  0
    5.0942    0.6608    0.1742 N   0  0  0  0  0  0  0  0  0  0  0  0
    5.8655    0.8500    1.4017 C   0  0  0  0  0  0  0  0  0  0  0  0
    7.0464   -0.0997    1.3887 C   0  0  0  0  0  0  0  0  0  0  0  0
    7.7116   -0.1695    0.1947 O   0  0  0  0  0  0  0  0  0  0  0  0
    6.8917   -0.4543   -0.8958 C   0  0  0  0  0  0  0  0  0  0  0  0
    5.8715    0.6778   -1.0448 C   0  0  0  0  0  0  0  0  0  0  0  0
   -2.7916   -0.1674   -0.5462 N   0  0  0  0  0  0  0  0  0  0  0  0
   -7.6774   -0.7112   -1.9345 H   0  0  0  0  0  0  0  0  0  0  0  0
   -8.9130   -0.4580    1.3850 H   0  0  0  0  0  0  0  0  0  0  0  0
   -7.6244   -0.1293    3.4879 H   0  0  0  0  0  0  0  0  0  0  0  0
   -5.1737    0.0599    3.3958 H   0  0  0  0  0  0  0  0  0  0  0  0
   -4.0373   -0.0696    1.3127 H   0  0  0  0  0  0  0  0  0  0  0  0
   -5.7857   -0.5683   -2.0400 H   0  0  0  0  0  0  0  0  0  0  0  0
   -4.0678   -0.5869   -3.5233 H   0  0  0  0  0  0  0  0  0  0  0  0
   -1.6995   -0.4614   -4.1447 H   0  0  0  0  0  0  0  0  0  0  0  0
   -0.9753    0.1742    1.2271 H   0  0  0  0  0  0  0  0  0  0  0  0
    1.1771   -0.6177   -1.7491 H   0  0  0  0  0  0  0  0  0  0  0  0
    3.5417   -0.3734   -1.7911 H   0  0  0  0  0  0  0  0  0  0  0  0
    3.4467    1.3014    2.0997 H   0  0  0  0  0  0  0  0  0  0  0  0
    0.9687    1.0512    2.1449 H   0  0  0  0  0  0  0  0  0  0  0  0
    6.2513    1.8869    1.4048 H   0  0  0  0  0  0  0  0  0  0  0  0
    5.3087    0.6310    2.3150 H   0  0  0  0  0  0  0  0  0  0  0  0
    6.6797   -1.0808    1.7545 H   0  0  0  0  0  0  0  0  0  0  0  0
    7.7587    0.2789    2.1505 H   0  0  0  0  0  0  0  0  0  0  0  0
    6.3444   -1.3944   -0.7992 H   0  0  0  0  0  0  0  0  0  0  0  0
    7.5433   -0.4987   -1.7884 H   0  0  0  0  0  0  0  0  0  0  0  0
    5.2730    0.5465   -1.9367 H   0  0  0  0  0  0  0  0  0  0  0  0
    6.4178    1.6575   -1.0258 H   0  0  0  0  0  0  0  0  0  0  0  0
  1  2  1  0
  2  3  2  0
  3  4  1  0
  4  5  2  0
  5  6  1  0
  6  7  2  0
  7  8  1  0
  8  9  1  0
  9 10  2  0
 10 11  1  0
 11 12  2  0
 12 13  1  0
 13 14  1  0
 14 15  1  0
 15 16  2  0
 16 17  1  0
 17 18  2  0
 18 19  1  0
 19 20  2  0
 18 21  1  0
 21 22  1  0
 22 23  1  0
 23 24  1  0
 24 25  1  0
 25 26  1  0
 13 27  2  0
  7  2  1  0
 27  9  1  0
 20 15  1  0
 26 21  1  0
  1 28  1  0
  3 29  1  0
  4 30  1  0
  5 31  1  0
  6 32  1  0
  8 33  1  0
 10 34  1  0
 11 35  1  0
 14 36  1  0
 16 37  1  0
 17 38  1  0
 19 39  1  0
 20 40  1  0
 22 41  1  0
 22 42  1  0
 23 43  1  0
 23 44  1  0
 25 45  1  0
 25 46  1  0
 26 47  1  0
 26 48  1  0
M  END
$$$$
[H]N=C(N([H])[H])N([H])C([H])([H])C([H])([H])C([H])([H])[C@@]([H])(C(=O)N([H])[C@]([H])(C(=O)N([H])[C@]([H])(C(=O)O[H])C([H])([H])C([H])([H])C(=O)N([H])[H])C([H])([H])C([H])([H])C(=O)N([H])[H])N([H])C(=O)[C@@]([H])(N([H])C(=O)[C@@]([H])(N([H])C(=O)[C@@]([H])(N([H])C(=O)C(O[H])(C([H])([H])[H])C([H])([H])[H])C([H])([H])c1c([H])c([H])c([H])c([H])c1[H])C([H])([H])C([H])([H])C(=O)N([H])[H])C([H])([H])C(=O)N([H])[H]
     RDKit          3D

123123  0  0  0  0  0  0  0  0999 V2000
  -10.7810   -1.2733    0.9551 C   0  0  0  0  0  0  0  0  0  0  0  0
  -10.2973    0.1723    1.0053 C   0  0  0  0  0  0  0  0  0  0  0  0
  -11.4762    1.0743    0.7543 C   0  0  0  0  0  0  0  0  0  0  0  0
   -9.8386    0.4131    2.2863 O   0  0  0  0  0  0  0  0  0  0  0  0
   -9.2740    0.4082   -0.0263 C   0  0  0  0  0  0  0  0  0  0  0  0
   -9.5999    0.2053   -1.2438 O   0  0  0  0  0  0  0  0  0  0  0  0
   -7.9827    0.8409    0.3208 N   0  0  0  0  0  0  0  0  0  0  0  0
   -6.9901    1.0571   -0.7242 C   0  0  1  0  0  0  0  0  0  0  0  0
   -6.4747    2.4751   -0.5734 C   0  0  0  0  0  0  0  0  0  0  0  0
   -7.6590    3.3911   -0.7330 C   0  0  0  0  0  0  0  0  0  0  0  0
   -8.4148    3.7534    0.3645 C   0  0  0  0  0  0  0  0  0  0  0  0
   -9.4980    4.5755    0.2450 C   0  0  0  0  0  0  0  0  0  0  0  0
   -9.8893    5.0832   -0.9760 C   0  0  0  0  0  0  0  0  0  0  0  0
   -9.1300    4.7195   -2.0788 C   0  0  0  0  0  0  0  0  0  0  0  0
   -8.0304    3.8859   -1.9637 C   0  0  0  0  0  0  0  0  0  0  0  0
   -5.8981    0.0761   -0.4610 C   0  0  0  0  0  0  0  0  0  0  0  0
   -5.7647   -0.3454    0.7230 O   0  0  0  0  0  0  0  0  0  0  0  0
   -5.0328   -0.3928   -1.4666 N   0  0  0  0  0  0  0  0  0  0  0  0
   -4.0107   -1.3464   -1.1431 C   0  0  1  0  0  0  0  0  0  0  0  0
   -4.1891   -2.6479   -1.9063 C   0  0  0  0  0  0  0  0  0  0  0  0
   -5.4612   -3.3594   -1.6712 C   0  0  0  0  0  0  0  0  0  0  0  0
   -5.6633   -3.7789   -0.2932 C   0  0  0  0  0  0  0  0  0  0  0  0
   -6.9770   -4.2766    0.0472 N   0  0  0  0  0  0  0  0  0  0  0  0
   -4.7724   -3.7259    0.5678 O   0  0  0  0  0  0  0  0  0  0  0  0
   -2.6793   -0.7390   -1.5384 C   0  0  0  0  0  0  0  0  0  0  0  0
   -2.6812    0.3787   -2.0643 O   0  0  0  0  0  0  0  0  0  0  0  0
   -1.5348   -1.4874   -1.2814 N   0  0  0  0  0  0  0  0  0  0  0  0
   -0.1617   -1.2592   -1.5323 C   0  0  1  0  0  0  0  0  0  0  0  0
    0.0361   -0.1708   -2.5771 C   0  0  0  0  0  0  0  0  0  0  0  0
   -0.5383   -0.5952   -3.8525 C   0  0  0  0  0  0  0  0  0  0  0  0
   -0.5548    0.2877   -4.9822 N   0  0  0  0  0  0  0  0  0  0  0  0
   -1.0303   -1.7544   -3.9730 O   0  0  0  0  0  0  0  0  0  0  0  0
    0.7028   -1.1115   -0.3551 C   0  0  0  0  0  0  0  0  0  0  0  0
    0.1502   -1.1163    0.7777 O   0  0  0  0  0  0  0  0  0  0  0  0
    2.0974   -0.9679   -0.4044 N   0  0  0  0  0  0  0  0  0  0  0  0
    3.0019   -0.8168    0.6779 C   0  0  1  0  0  0  0  0  0  0  0  0
    3.7825   -2.1054    0.9693 C   0  0  0  0  0  0  0  0  0  0  0  0
    4.5843   -2.5493   -0.1838 C   0  0  0  0  0  0  0  0  0  0  0  0
    5.3948   -3.7667    0.0890 C   0  0  0  0  0  0  0  0  0  0  0  0
    4.7152   -4.9745    0.4426 N   0  0  0  0  0  0  0  0  0  0  0  0
    4.0564   -5.2092    1.6555 C   0  0  0  0  0  0  0  0  0  0  0  0
    2.7771   -5.8137    1.6843 N   0  0  0  0  0  0  0  0  0  0  0  0
    4.6313   -4.8788    2.7777 N   0  0  0  0  0  0  0  0  0  0  0  0
    3.9909    0.2783    0.4850 C   0  0  0  0  0  0  0  0  0  0  0  0
    3.9932    1.0024   -0.5467 O   0  0  0  0  0  0  0  0  0  0  0  0
    4.9758    0.5410    1.4703 N   0  0  0  0  0  0  0  0  0  0  0  0
    5.9352    1.6038    1.2651 C   0  0  1  0  0  0  0  0  0  0  0  0
    5.8050    2.6902    2.3215 C   0  0  0  0  0  0  0  0  0  0  0  0
    4.4176    3.3013    2.2899 C   0  0  0  0  0  0  0  0  0  0  0  0
    4.2351    4.3523    3.2902 C   0  0  0  0  0  0  0  0  0  0  0  0
    2.9926    5.0156    3.3991 N   0  0  0  0  0  0  0  0  0  0  0  0
    5.1719    4.6686    4.0507 O   0  0  0  0  0  0  0  0  0  0  0  0
    7.2802    1.0374    1.2017 C   0  0  0  0  0  0  0  0  0  0  0  0
    7.4068   -0.2330    1.3125 O   0  0  0  0  0  0  0  0  0  0  0  0
    8.4637    1.7909    1.0245 N   0  0  0  0  0  0  0  0  0  0  0  0
    9.7921    1.1794    0.9628 C   0  0  1  0  0  0  0  0  0  0  0  0
   10.4220    1.6681   -0.3008 C   0  0  0  0  0  0  0  0  0  0  0  0
   11.7968    1.1643   -0.5798 C   0  0  0  0  0  0  0  0  0  0  0  0
   11.8868   -0.2960   -0.7288 C   0  0  0  0  0  0  0  0  0  0  0  0
   13.1512   -0.9242   -0.7694 N   0  0  0  0  0  0  0  0  0  0  0  0
   10.8586   -1.0379   -0.8267 O   0  0  0  0  0  0  0  0  0  0  0  0
   10.5297    1.5940    2.1766 C   0  0  0  0  0  0  0  0  0  0  0  0
   11.8164    1.1861    2.4386 O   0  0  0  0  0  0  0  0  0  0  0  0
    9.9638    2.3485    3.0052 O   0  0  0  0  0  0  0  0  0  0  0  0
  -10.3145   -1.8725    1.7720 H   0  0  0  0  0  0  0  0  0  0  0  0
  -11.8613   -1.2742    1.1377 H   0  0  0  0  0  0  0  0  0  0  0  0
  -10.5911   -1.7005   -0.0554 H   0  0  0  0  0  0  0  0  0  0  0  0
  -12.3985    0.5550    1.0991 H   0  0  0  0  0  0  0  0  0  0  0  0
  -11.3605    1.9945    1.3600 H   0  0  0  0  0  0  0  0  0  0  0  0
  -11.5467    1.2347   -0.3264 H   0  0  0  0  0  0  0  0  0  0  0  0
  -10.2463   -0.1381    2.9720 H   0  0  0  0  0  0  0  0  0  0  0  0
   -7.7293    1.0061    1.3009 H   0  0  0  0  0  0  0  0  0  0  0  0
   -7.3599    0.8999   -1.7337 H   0  0  0  0  0  0  0  0  0  0  0  0
   -6.0758    2.6764    0.4347 H   0  0  0  0  0  0  0  0  0  0  0  0
   -5.7485    2.6811   -1.3776 H   0  0  0  0  0  0  0  0  0  0  0  0
   -8.1435    3.3765    1.3468 H   0  0  0  0  0  0  0  0  0  0  0  0
  -10.0767    4.8478    1.1099 H   0  0  0  0  0  0  0  0  0  0  0  0
  -10.7405    5.7260   -1.0514 H   0  0  0  0  0  0  0  0  0  0  0  0
   -9.4418    5.1193   -3.0220 H   0  0  0  0  0  0  0  0  0  0  0  0
   -7.4717    3.6342   -2.8605 H   0  0  0  0  0  0  0  0  0  0  0  0
   -5.1259   -0.0586   -2.4370 H   0  0  0  0  0  0  0  0  0  0  0  0
   -3.9762   -1.5437   -0.0694 H   0  0  0  0  0  0  0  0  0  0  0  0
   -4.0776   -2.3620   -2.9892 H   0  0  0  0  0  0  0  0  0  0  0  0
   -3.3537   -3.3293   -1.7081 H   0  0  0  0  0  0  0  0  0  0  0  0
   -5.4428   -4.2678   -2.3551 H   0  0  0  0  0  0  0  0  0  0  0  0
   -6.3650   -2.8065   -2.0160 H   0  0  0  0  0  0  0  0  0  0  0  0
   -7.1178   -5.2924    0.0525 H   0  0  0  0  0  0  0  0  0  0  0  0
   -7.6861   -3.5586    0.2646 H   0  0  0  0  0  0  0  0  0  0  0  0
   -1.7347   -2.4475   -0.7837 H   0  0  0  0  0  0  0  0  0  0  0  0
    0.1830   -2.1819   -2.1232 H   0  0  0  0  0  0  0  0  0  0  0  0
    1.1512   -0.0739   -2.7298 H   0  0  0  0  0  0  0  0  0  0  0  0
   -0.3062    0.8137   -2.2812 H   0  0  0  0  0  0  0  0  0  0  0  0
    0.2858    0.8397   -5.2494 H   0  0  0  0  0  0  0  0  0  0  0  0
   -1.4081    0.4053   -5.5703 H   0  0  0  0  0  0  0  0  0  0  0  0
    2.5231   -0.9750   -1.3831 H   0  0  0  0  0  0  0  0  0  0  0  0
    2.4569   -0.6186    1.6139 H   0  0  0  0  0  0  0  0  0  0  0  0
    3.0273   -2.8495    1.2879 H   0  0  0  0  0  0  0  0  0  0  0  0
    4.4281   -1.8859    1.8327 H   0  0  0  0  0  0  0  0  0  0  0  0
    5.2781   -1.7454   -0.5296 H   0  0  0  0  0  0  0  0  0  0  0  0
    3.9710   -2.7814   -1.0923 H   0  0  0  0  0  0  0  0  0  0  0  0
    6.1058   -3.9826   -0.7650 H   0  0  0  0  0  0  0  0  0  0  0  0
    6.1282   -3.5870    0.9461 H   0  0  0  0  0  0  0  0  0  0  0  0
    4.6886   -5.7907   -0.2580 H   0  0  0  0  0  0  0  0  0  0  0  0
    2.0919   -5.6076    0.9291 H   0  0  0  0  0  0  0  0  0  0  0  0
    2.5474   -6.4565    2.4604 H   0  0  0  0  0  0  0  0  0  0  0  0
    5.5788   -4.4441    2.7451 H   0  0  0  0  0  0  0  0  0  0  0  0
    5.0521   -0.0029    2.3611 H   0  0  0  0  0  0  0  0  0  0  0  0
    5.7382    2.1426    0.2919 H   0  0  0  0  0  0  0  0  0  0  0  0
    6.5887    3.4359    2.1797 H   0  0  0  0  0  0  0  0  0  0  0  0
    5.9440    2.1937    3.2901 H   0  0  0  0  0  0  0  0  0  0  0  0
    4.2861    3.7397    1.2580 H   0  0  0  0  0  0  0  0  0  0  0  0
    3.6304    2.5031    2.3896 H   0  0  0  0  0  0  0  0  0  0  0  0
    2.9417    6.0238    3.1444 H   0  0  0  0  0  0  0  0  0  0  0  0
    2.1835    4.4501    3.7352 H   0  0  0  0  0  0  0  0  0  0  0  0
    8.3974    2.8193    0.9343 H   0  0  0  0  0  0  0  0  0  0  0  0
    9.7083    0.0704    1.0085 H   0  0  0  0  0  0  0  0  0  0  0  0
    9.7767    1.3454   -1.1395 H   0  0  0  0  0  0  0  0  0  0  0  0
   10.3789    2.7848   -0.2910 H   0  0  0  0  0  0  0  0  0  0  0  0
   12.0947    1.6143   -1.5767 H   0  0  0  0  0  0  0  0  0  0  0  0
   12.5828    1.5251    0.1196 H   0  0  0  0  0  0  0  0  0  0  0  0
   13.5946   -1.1802   -1.6704 H   0  0  0  0  0  0  0  0  0  0  0  0
   13.6798   -1.1491    0.1146 H   0  0  0  0  0  0  0  0  0  0  0  0
   12.1478    0.2396    2.3208 H   0  0  0  0  0  0  0  0  0  0  0  0
  1  2  1  0
  2  3  1  0
  2  4  1  0
  2  5  1  0
  5  6  2  0
  5  7  1  0
  7  8  1  0
  8  9  1  0
  9 10  1  0
 10 11  2  0
 11 12  1  0
 12 13  2  0
 13 14  1  0
 14 15  2  0
  8 16  1  0
 16 17  2  0
 16 18  1  0
 18 19  1  0
 19 20  1  0
 20 21  1  0
 21 22  1  0
 22 23  1  0
 22 24  2  0
 19 25  1  0
 25 26  2  0
 25 27  1  0
 27 28  1  0
 28 29  1  0
 29 30  1  0
 30 31  1  0
 30 32  2  0
 28 33  1  0
 33 34  2  0
 33 35  1  0
 35 36  1  0
 36 37  1  0
 37 38  1  0
 38 39  1  0
 39 40  1  0
 40 41  1  0
 41 42  1  0
 41 43  2  3
 36 44  1  0
 44 45  2  0
 44 46  1  0
 46 47  1  0
 47 48  1  0
 48 49  1  0
 49 50  1  0
 50 51  1  0
 50 52  2  0
 47 53  1  0
 53 54  2  0
 53 55  1  0
 55 56  1  0
 56 57  1  0
 57 58  1  0
 58 59  1  0
 59 60  1  0
 59 61  2  0
 56 62  1  0
 62 63  1  0
 62 64  2  0
 15 10  1  0
  1 65  1  0
  1 66  1  0
  1 67  1  0
  3 68  1  0
  3 69  1  0
  3 70  1  0
  4 71  1  0
  7 72  1  0
  8 73  1  6
  9 74  1  0
  9 75  1  0
 11 76  1  0
 12 77  1  0
 13 78  1  0
 14 79  1  0
 15 80  1  0
 18 81  1  0
 19 82  1  1
 20 83  1  0
 20 84  1  0
 21 85  1  0
 21 86  1  0
 23 87  1  0
 23 88  1  0
 27 89  1  0
 28 90  1  6
 29 91  1  0
 29 92  1  0
 31 93  1  0
 31 94  1  0
 35 95  1  0
 36 96  1  1
 37 97  1  0
 37 98  1  0
 38 99  1  0
 38100  1  0
 39101  1  0
 39102  1  0
 40103  1  0
 42104  1  0
 42105  1  0
 43106  1  0
 46107  1  0
 47108  1  6
 48109  1  0
 48110  1  0
 49111  1  0
 49112  1  0
 51113  1  0
 51114  1  0
 55115  1  0
 56116  1  6
 57117  1  0
 57118  1  0
 58119  1  0
 58120  1  0
 60121  1  0
 60122  1  0
 63123  1  0
M  END
$$$$
[H]c1nc([H])n([H])c1-c1nc(N2C([H])([H])C([H])([H])OC([H])([H])C2([H])[H])c2c([H])c([H])c([H])c(-c3c([H])c([H])c(F)c([H])c3[H])c2n1
     RDKit          3D

 46 50  0  0  0  0  0  0  0  0999 V2000
   -7.2070    0.0234    0.5050 F   0  0  0  0  0  0  0  0  0  0  0  0
   -5.8829   -0.3242    0.5028 C   0  0  0  0  0  0  0  0  0  0  0  0
   -5.0696   -0.0392   -0.5709 C   0  0  0  0  0  0  0  0  0  0  0  0
   -3.7139   -0.3904   -0.5831 C   0  0  0  0  0  0  0  0  0  0  0  0
   -3.1620   -1.0363    0.4944 C   0  0  0  0  0  0  0  0  0  0  0  0
   -3.9907   -1.3168    1.5669 C   0  0  0  0  0  0  0  0  0  0  0  0
   -5.3201   -0.9724    1.5786 C   0  0  0  0  0  0  0  0  0  0  0  0
   -1.7554   -1.4114    0.5214 C   0  0  0  0  0  0  0  0  0  0  0  0
   -1.4299   -2.7196    0.8949 C   0  0  0  0  0  0  0  0  0  0  0  0
   -0.1096   -3.0953    0.9194 C   0  0  0  0  0  0  0  0  0  0  0  0
    0.8697   -2.1667    0.5727 C   0  0  0  0  0  0  0  0  0  0  0  0
    0.5514   -0.8873    0.2084 C   0  0  0  0  0  0  0  0  0  0  0  0
    1.5789   -0.0134   -0.1288 C   0  0  0  0  0  0  0  0  0  0  0  0
    2.9521   -0.3360   -0.0897 N   0  0  0  0  0  0  0  0  0  0  0  0
    3.6093   -0.5026    1.1780 C   0  0  0  0  0  0  0  0  0  0  0  0
    4.8310   -1.3689    0.9455 C   0  0  0  0  0  0  0  0  0  0  0  0
    5.7098   -0.8024    0.0549 O   0  0  0  0  0  0  0  0  0  0  0  0
    5.1485   -0.1056   -0.9837 C   0  0  0  0  0  0  0  0  0  0  0  0
    3.7201   -0.5045   -1.2942 C   0  0  0  0  0  0  0  0  0  0  0  0
    1.1720    1.2454   -0.4879 N   0  0  0  0  0  0  0  0  0  0  0  0
   -0.1159    1.6182   -0.5148 C   0  0  0  0  0  0  0  0  0  0  0  0
   -1.0895    0.7529   -0.1827 N   0  0  0  0  0  0  0  0  0  0  0  0
   -0.7798   -0.5046    0.1819 C   0  0  0  0  0  0  0  0  0  0  0  0
   -0.4775    2.9952   -0.9131 C   0  0  0  0  0  0  0  0  0  0  0  0
    0.4163    3.9844   -1.2778 C   0  0  0  0  0  0  0  0  0  0  0  0
   -0.3187    5.0725   -1.5620 N   0  0  0  0  0  0  0  0  0  0  0  0
   -1.6156    4.7675   -1.3800 C   0  0  0  0  0  0  0  0  0  0  0  0
   -1.7139    3.4914   -0.9814 N   0  0  0  0  0  0  0  0  0  0  0  0
   -5.5169    0.4687   -1.4103 H   0  0  0  0  0  0  0  0  0  0  0  0
   -3.1150   -0.1493   -1.4538 H   0  0  0  0  0  0  0  0  0  0  0  0
   -3.5166   -1.8322    2.4072 H   0  0  0  0  0  0  0  0  0  0  0  0
   -5.9399   -1.2060    2.4319 H   0  0  0  0  0  0  0  0  0  0  0  0
   -2.2198   -3.4239    1.1612 H   0  0  0  0  0  0  0  0  0  0  0  0
    0.2092   -4.0968    1.2004 H   0  0  0  0  0  0  0  0  0  0  0  0
    1.9193   -2.4421    0.5723 H   0  0  0  0  0  0  0  0  0  0  0  0
    4.0177    0.5075    1.5060 H   0  0  0  0  0  0  0  0  0  0  0  0
    2.9980   -0.8967    1.9873 H   0  0  0  0  0  0  0  0  0  0  0  0
    4.4749   -2.3703    0.6223 H   0  0  0  0  0  0  0  0  0  0  0  0
    5.3284   -1.5103    1.9205 H   0  0  0  0  0  0  0  0  0  0  0  0
    5.2506    0.9941   -0.8756 H   0  0  0  0  0  0  0  0  0  0  0  0
    5.7397   -0.3603   -1.9081 H   0  0  0  0  0  0  0  0  0  0  0  0
    3.3669    0.1825   -2.0988 H   0  0  0  0  0  0  0  0  0  0  0  0
    3.7581   -1.5561   -1.6434 H   0  0  0  0  0  0  0  0  0  0  0  0
    1.4998    3.8650   -1.3148 H   0  0  0  0  0  0  0  0  0  0  0  0
   -2.4711    5.4352   -1.5269 H   0  0  0  0  0  0  0  0  0  0  0  0
   -2.5905    2.9378   -0.7518 H   0  0  0  0  0  0  0  0  0  0  0  0
  1  2  1  0
  2  3  2  0
  3  4  1  0
  4  5  2  0
  5  6  1  0
  6  7  2  0
  5  8  1  0
  8  9  2  0
  9 10  1  0
 10 11  2  0
 11 12  1  0
 12 13  2  0
 13 14  1  0
 14 15  1  0
 15 16  1  0
 16 17  1  0
 17 18  1  0
 18 19  1  0
 13 20  1  0
 20 21  2  0
 21 22  1  0
 22 23  2  0
 21 24  1  0
 24 25  2  0
 25 26  1  0
 26 27  2  0
 27 28  1  0
  7  2  1  0
 23  8  1  0
 28 24  1  0
 23 12  1  0
 19 14  1  0
  3 29  1  0
  4 30  1  0
  6 31  1  0
  7 32  1  0
  9 33  1  0
 10 34  1  0
 11 35  1  0
 15 36  1  0
 15 37  1  0
 16 38  1  0
 16 39  1  0
 18 40  1  0
 18 41  1  0
 19 42  1  0
 19 43  1  0
 25 44  1  0
 27 45  1  0
 28 46  1  0
M  END
$$$$
[H]N=C(N([H])[H])N([H])C([H])([H])C([H])([H])C([H])([H])[C@@]([H])(C(=O)N([H])[C@]([H])(C(=O)N1C([H])([H])C([H])([H])C([H])([H])[C@@]1([H])C(=O)N([H])[C@]([H])(C(=O)N([H])[C@]([H])(C(=O)O[H])C([H])([H])c1c([H])n([H])c2c([H])c([H])c([H])c([H])c12)C([H])([H])C([H])([H])C([H])([H])N([H])C(=N[H])N([H])[H])C([H])([H])C([H])([H])C([H])([H])N([H])C(=N[H])N([H])[H])N([H])[H]
     RDKit          3D

110112  0  0  0  0  0  0  0  0999 V2000
   -4.1827    5.4554   -3.0202 N   0  0  0  0  0  0  0  0  0  0  0  0
   -5.2451    4.5284   -2.6958 C   0  0  0  0  0  0  0  0  0  0  0  0
   -6.3301    5.0237   -2.2036 N   0  0  0  0  0  0  0  0  0  0  0  0
   -5.0981    3.1472   -2.9059 N   0  0  0  0  0  0  0  0  0  0  0  0
   -4.8068    2.2489   -1.7777 C   0  0  0  0  0  0  0  0  0  0  0  0
   -3.4524    2.5464   -1.2607 C   0  0  0  0  0  0  0  0  0  0  0  0
   -2.9274    1.7360   -0.1465 C   0  0  0  0  0  0  0  0  0  0  0  0
   -2.7630    0.2718   -0.3787 C   0  0  2  0  0  0  0  0  0  0  0  0
   -1.8936   -0.0172   -1.4797 N   0  0  0  0  0  0  0  0  0  0  0  0
   -0.5840   -0.5955   -1.3880 C   0  0  0  0  0  0  0  0  0  0  0  0
   -0.2440   -0.8686   -0.2134 O   0  0  0  0  0  0  0  0  0  0  0  0
    0.1503   -0.7767   -2.5969 C   0  0  2  0  0  0  0  0  0  0  0  0
   -0.1035   -2.2295   -3.0906 C   0  0  0  0  0  0  0  0  0  0  0  0
    0.5935   -2.0717   -4.4431 C   0  0  0  0  0  0  0  0  0  0  0  0
    1.8220   -1.2540   -4.0517 C   0  0  0  0  0  0  0  0  0  0  0  0
    1.5665   -0.7674   -2.6712 N   0  0  0  0  0  0  0  0  0  0  0  0
    2.6225   -0.4326   -1.8132 C   0  0  0  0  0  0  0  0  0  0  0  0
    2.2744   -0.1104   -0.5952 O   0  0  0  0  0  0  0  0  0  0  0  0
    4.0634   -0.3596   -2.0203 C   0  0  2  0  0  0  0  0  0  0  0  0
    4.8300   -1.4328   -2.6542 C   0  0  0  0  0  0  0  0  0  0  0  0
    4.7862   -2.7863   -1.9908 C   0  0  0  0  0  0  0  0  0  0  0  0
    5.6683   -3.7304   -2.7704 C   0  0  0  0  0  0  0  0  0  0  0  0
    5.2398   -3.8974   -4.1330 N   0  0  0  0  0  0  0  0  0  0  0  0
    5.9281   -4.7399   -5.0536 C   0  0  0  0  0  0  0  0  0  0  0  0
    6.7739   -4.1730   -6.0334 N   0  0  0  0  0  0  0  0  0  0  0  0
    5.7912   -6.0336   -5.0103 N   0  0  0  0  0  0  0  0  0  0  0  0
    4.7451    0.0737   -0.7729 N   0  0  0  0  0  0  0  0  0  0  0  0
    4.8545    1.3976   -0.3606 C   0  0  0  0  0  0  0  0  0  0  0  0
    4.3336    2.3061   -1.0746 O   0  0  0  0  0  0  0  0  0  0  0  0
    5.5582    1.8411    0.8994 C   0  0  1  0  0  0  0  0  0  0  0  0
    5.0964    3.1357    1.2786 N   0  0  0  0  0  0  0  0  0  0  0  0
    5.3785    0.8319    1.9585 C   0  0  0  0  0  0  0  0  0  0  0  0
    6.0399    1.1464    3.2531 C   0  0  0  0  0  0  0  0  0  0  0  0
    5.6054    2.3439    4.0142 C   0  0  0  0  0  0  0  0  0  0  0  0
    4.1963    2.2722    4.3644 N   0  0  0  0  0  0  0  0  0  0  0  0
    3.6765    1.3322    5.2829 C   0  0  0  0  0  0  0  0  0  0  0  0
    2.2730    1.0597    5.2641 N   0  0  0  0  0  0  0  0  0  0  0  0
    4.4156    0.7279    6.1195 N   0  0  0  0  0  0  0  0  0  0  0  0
   -4.0014   -0.5013   -0.3141 C   0  0  0  0  0  0  0  0  0  0  0  0
   -4.1981   -1.3943   -1.2093 O   0  0  0  0  0  0  0  0  0  0  0  0
   -5.0175   -0.3539    0.6621 N   0  0  0  0  0  0  0  0  0  0  0  0
   -6.2016   -1.1122    0.7462 C   0  0  1  0  0  0  0  0  0  0  0  0
   -6.3526   -2.0075    1.9603 C   0  0  0  0  0  0  0  0  0  0  0  0
   -6.3043   -1.2207    3.2151 C   0  0  0  0  0  0  0  0  0  0  0  0
   -7.3773   -0.6584    3.8549 C   0  0  0  0  0  0  0  0  0  0  0  0
   -6.9282    0.0216    4.9041 N   0  0  0  0  0  0  0  0  0  0  0  0
   -5.5828   -0.0837    4.9663 C   0  0  0  0  0  0  0  0  0  0  0  0
   -4.6316    0.3997    5.8390 C   0  0  0  0  0  0  0  0  0  0  0  0
   -3.2778    0.1088    5.6661 C   0  0  0  0  0  0  0  0  0  0  0  0
   -2.8743   -0.6825    4.5976 C   0  0  0  0  0  0  0  0  0  0  0  0
   -3.8228   -1.1691    3.7191 C   0  0  0  0  0  0  0  0  0  0  0  0
   -5.1667   -0.8647    3.9105 C   0  0  0  0  0  0  0  0  0  0  0  0
   -7.4298   -0.2867    0.6187 C   0  0  0  0  0  0  0  0  0  0  0  0
   -8.6636   -0.9138    0.6596 O   0  0  0  0  0  0  0  0  0  0  0  0
   -7.3777    0.9380    0.4774 O   0  0  0  0  0  0  0  0  0  0  0  0
   -3.1873    5.2257   -2.8121 H   0  0  0  0  0  0  0  0  0  0  0  0
   -4.4089    6.3583   -3.4658 H   0  0  0  0  0  0  0  0  0  0  0  0
   -7.0986    4.3849   -1.9661 H   0  0  0  0  0  0  0  0  0  0  0  0
   -5.1920    2.7416   -3.8476 H   0  0  0  0  0  0  0  0  0  0  0  0
   -5.0160    1.2224   -2.0738 H   0  0  0  0  0  0  0  0  0  0  0  0
   -5.5976    2.5308   -1.0208 H   0  0  0  0  0  0  0  0  0  0  0  0
   -2.7146    2.4511   -2.1156 H   0  0  0  0  0  0  0  0  0  0  0  0
   -3.4346    3.6260   -0.9695 H   0  0  0  0  0  0  0  0  0  0  0  0
   -3.4680    1.8673    0.8143 H   0  0  0  0  0  0  0  0  0  0  0  0
   -1.8896    2.1309    0.0795 H   0  0  0  0  0  0  0  0  0  0  0  0
   -2.1743   -0.0839    0.5587 H   0  0  0  0  0  0  0  0  0  0  0  0
   -2.2401    0.2148   -2.4480 H   0  0  0  0  0  0  0  0  0  0  0  0
   -0.2975   -0.1444   -3.4399 H   0  0  0  0  0  0  0  0  0  0  0  0
   -1.1590   -2.4608   -3.1628 H   0  0  0  0  0  0  0  0  0  0  0  0
    0.4842   -2.8793   -2.4434 H   0  0  0  0  0  0  0  0  0  0  0  0
   -0.1004   -1.4787   -5.0757 H   0  0  0  0  0  0  0  0  0  0  0  0
    0.8443   -3.0369   -4.8897 H   0  0  0  0  0  0  0  0  0  0  0  0
    1.8710   -0.4074   -4.7621 H   0  0  0  0  0  0  0  0  0  0  0  0
    2.6437   -1.9619   -4.0961 H   0  0  0  0  0  0  0  0  0  0  0  0
    4.1845    0.5804   -2.6719 H   0  0  0  0  0  0  0  0  0  0  0  0
    4.7795   -1.5677   -3.7395 H   0  0  0  0  0  0  0  0  0  0  0  0
    5.9424   -1.0837   -2.5389 H   0  0  0  0  0  0  0  0  0  0  0  0
    5.1117   -2.7487   -0.9327 H   0  0  0  0  0  0  0  0  0  0  0  0
    3.7655   -3.2138   -2.0272 H   0  0  0  0  0  0  0  0  0  0  0  0
    5.6632   -4.7440   -2.3059 H   0  0  0  0  0  0  0  0  0  0  0  0
    6.7138   -3.3244   -2.7909 H   0  0  0  0  0  0  0  0  0  0  0  0
    4.4024   -3.4134   -4.5018 H   0  0  0  0  0  0  0  0  0  0  0  0
    6.7035   -4.5407   -7.0043 H   0  0  0  0  0  0  0  0  0  0  0  0
    7.4446   -3.4244   -5.8165 H   0  0  0  0  0  0  0  0  0  0  0  0
    5.1544   -6.4086   -4.2683 H   0  0  0  0  0  0  0  0  0  0  0  0
    5.1721   -0.6792   -0.1741 H   0  0  0  0  0  0  0  0  0  0  0  0
    6.6644    1.9035    0.6958 H   0  0  0  0  0  0  0  0  0  0  0  0
    4.0847    3.1601    1.4884 H   0  0  0  0  0  0  0  0  0  0  0  0
    5.4553    3.9385    0.7520 H   0  0  0  0  0  0  0  0  0  0  0  0
    5.8099   -0.1846    1.6384 H   0  0  0  0  0  0  0  0  0  0  0  0
    4.3010    0.5960    2.1548 H   0  0  0  0  0  0  0  0  0  0  0  0
    7.1670    1.2587    3.1174 H   0  0  0  0  0  0  0  0  0  0  0  0
    5.9609    0.2611    3.9684 H   0  0  0  0  0  0  0  0  0  0  0  0
    5.8995    3.2933    3.5687 H   0  0  0  0  0  0  0  0  0  0  0  0
    6.1316    2.2601    5.0263 H   0  0  0  0  0  0  0  0  0  0  0  0
    3.5568    2.9634    3.9020 H   0  0  0  0  0  0  0  0  0  0  0  0
    1.8385    0.4726    6.0065 H   0  0  0  0  0  0  0  0  0  0  0  0
    1.6734    1.4363    4.5196 H   0  0  0  0  0  0  0  0  0  0  0  0
    5.4327    0.8131    6.2594 H   0  0  0  0  0  0  0  0  0  0  0  0
   -4.8484    0.4251    1.3647 H   0  0  0  0  0  0  0  0  0  0  0  0
   -6.1680   -1.8480   -0.1259 H   0  0  0  0  0  0  0  0  0  0  0  0
   -5.6683   -2.8698    1.9446 H   0  0  0  0  0  0  0  0  0  0  0  0
   -7.3911   -2.4456    1.9013 H   0  0  0  0  0  0  0  0  0  0  0  0
   -8.4442   -0.7528    3.5535 H   0  0  0  0  0  0  0  0  0  0  0  0
   -7.5020    0.5709    5.6054 H   0  0  0  0  0  0  0  0  0  0  0  0
   -4.9413    1.0148    6.6658 H   0  0  0  0  0  0  0  0  0  0  0  0
   -2.5391    0.4975    6.3557 H   0  0  0  0  0  0  0  0  0  0  0  0
   -1.8324   -0.9210    4.4449 H   0  0  0  0  0  0  0  0  0  0  0  0
   -3.5160   -1.8010    2.8702 H   0  0  0  0  0  0  0  0  0  0  0  0
   -9.4715   -0.6110    0.1283 H   0  0  0  0  0  0  0  0  0  0  0  0
  1  2  1  0
  2  3  2  3
  2  4  1  0
  4  5  1  0
  5  6  1  0
  6  7  1  0
  7  8  1  0
  8  9  1  0
  9 10  1  0
 10 11  2  0
 10 12  1  0
 12 13  1  0
 13 14  1  0
 14 15  1  0
 15 16  1  0
 16 17  1  0
 17 18  2  0
 17 19  1  0
 19 20  1  0
 20 21  1  0
 21 22  1  0
 22 23  1  0
 23 24  1  0
 24 25  1  0
 24 26  2  3
 19 27  1  0
 27 28  1  0
 28 29  2  0
 28 30  1  0
 30 31  1  0
 30 32  1  0
 32 33  1  0
 33 34  1  0
 34 35  1  0
 35 36  1  0
 36 37  1  0
 36 38  2  3
  8 39  1  0
 39 40  2  0
 39 41  1  0
 41 42  1  0
 42 43  1  0
 43 44  1  0
 44 45  2  0
 45 46  1  0
 46 47  1  0
 47 48  2  0
 48 49  1  0
 49 50  2  0
 50 51  1  0
 51 52  2  0
 42 53  1  0
 53 54  1  0
 53 55  2  0
 16 12  1  0
 52 44  1  0
 52 47  1  0
  1 56  1  0
  1 57  1  0
  3 58  1  0
  4 59  1  0
  5 60  1  0
  5 61  1  0
  6 62  1  0
  6 63  1  0
  7 64  1  0
  7 65  1  0
  8 66  1  1
  9 67  1  0
 12 68  1  6
 13 69  1  0
 13 70  1  0
 14 71  1  0
 14 72  1  0
 15 73  1  0
 15 74  1  0
 19 75  1  6
 20 76  1  0
 20 77  1  0
 21 78  1  0
 21 79  1  0
 22 80  1  0
 22 81  1  0
 23 82  1  0
 25 83  1  0
 25 84  1  0
 26 85  1  0
 27 86  1  0
 30 87  1  6
 31 88  1  0
 31 89  1  0
 32 90  1  0
 32 91  1  0
 33 92  1  0
 33 93  1  0
 34 94  1  0
 34 95  1  0
 35 96  1  0
 37 97  1  0
 37 98  1  0
 38 99  1  0
 41100  1  0
 42101  1  6
 43102  1  0
 43103  1  0
 45104  1  0
 46105  1  0
 48106  1  0
 49107  1  0
 50108  1  0
 51109  1  0
 54110  1  0
M  END
$$$$
[H]c1c([H])c(C(=O)N([H])C([H])([H])[C@@]2([H])OC([H])([H])C([H])([H])N(C(=O)C([H])([H])C([H])([H])[C@]3([H])c4c([H])c5c(c([H])c4C([H])([H])C3([H])[H])OC([H])([H])C([H])([H])O5)C2([H])[H])c([H])c([H])c1C#N
     RDKit          3D

 64 68  0  0  0  0  0  0  0  0999 V2000
    8.2266   -1.4097   -5.2352 N   0  0  0  0  0  0  0  0  0  0  0  0
    7.7131   -1.2408   -4.2125 C   0  0  0  0  0  0  0  0  0  0  0  0
    7.0758   -1.0050   -2.9332 C   0  0  0  0  0  0  0  0  0  0  0  0
    6.7121   -2.1030   -2.1713 C   0  0  0  0  0  0  0  0  0  0  0  0
    6.1105   -1.8424   -0.9648 C   0  0  0  0  0  0  0  0  0  0  0  0
    5.8597   -0.5533   -0.4923 C   0  0  0  0  0  0  0  0  0  0  0  0
    6.2245    0.5160   -1.2556 C   0  0  0  0  0  0  0  0  0  0  0  0
    6.8341    0.2703   -2.4787 C   0  0  0  0  0  0  0  0  0  0  0  0
    5.2236   -0.3431    0.7847 C   0  0  0  0  0  0  0  0  0  0  0  0
    4.8983   -1.3892    1.4394 O   0  0  0  0  0  0  0  0  0  0  0  0
    4.9447    0.9265    1.3431 N   0  0  0  0  0  0  0  0  0  0  0  0
    4.3093    1.1535    2.6125 C   0  0  0  0  0  0  0  0  0  0  0  0
    2.9190    0.5875    2.7038 C   0  0  2  0  0  0  0  0  0  0  0  0
    2.0243    1.0523    1.5701 C   0  0  0  0  0  0  0  0  0  0  0  0
    0.7868    1.4975    2.1528 N   0  0  0  0  0  0  0  0  0  0  0  0
    0.8473    2.5295    3.1469 C   0  0  0  0  0  0  0  0  0  0  0  0
    1.9722    2.1769    4.1001 C   0  0  0  0  0  0  0  0  0  0  0  0
    2.3729    0.8552    3.9602 O   0  0  0  0  0  0  0  0  0  0  0  0
   -0.4302    0.9135    1.7330 C   0  0  0  0  0  0  0  0  0  0  0  0
   -1.4798    1.3682    2.3049 O   0  0  0  0  0  0  0  0  0  0  0  0
   -0.5211   -0.1430    0.7167 C   0  0  0  0  0  0  0  0  0  0  0  0
   -1.9110   -0.4903    0.3782 C   0  0  0  0  0  0  0  0  0  0  0  0
   -2.7921    0.5465   -0.1969 C   0  0  1  0  0  0  0  0  0  0  0  0
   -2.3194    1.1357   -1.4936 C   0  0  0  0  0  0  0  0  0  0  0  0
   -2.9182    0.2569   -2.5423 C   0  0  0  0  0  0  0  0  0  0  0  0
   -4.1362   -0.2589   -1.9066 C   0  0  0  0  0  0  0  0  0  0  0  0
   -5.2631   -0.8510   -2.4921 C   0  0  0  0  0  0  0  0  0  0  0  0
   -6.3231   -1.2744   -1.6782 C   0  0  0  0  0  0  0  0  0  0  0  0
   -7.4486   -1.8623   -2.2269 O   0  0  0  0  0  0  0  0  0  0  0  0
   -8.6504   -1.8303   -1.5040 C   0  0  0  0  0  0  0  0  0  0  0  0
   -8.3961   -2.2509   -0.0529 C   0  0  0  0  0  0  0  0  0  0  0  0
   -7.3046   -1.5301    0.4685 O   0  0  0  0  0  0  0  0  0  0  0  0
   -6.2569   -1.1101   -0.3195 C   0  0  0  0  0  0  0  0  0  0  0  0
   -5.1284   -0.5227    0.2102 C   0  0  0  0  0  0  0  0  0  0  0  0
   -4.0718   -0.0973   -0.5664 C   0  0  0  0  0  0  0  0  0  0  0  0
    6.9134   -3.0903   -2.5518 H   0  0  0  0  0  0  0  0  0  0  0  0
    5.8133   -2.6925   -0.3437 H   0  0  0  0  0  0  0  0  0  0  0  0
    6.0817    1.5567   -0.9947 H   0  0  0  0  0  0  0  0  0  0  0  0
    7.1301    1.1254   -3.0980 H   0  0  0  0  0  0  0  0  0  0  0  0
    5.2208    1.7597    0.7917 H   0  0  0  0  0  0  0  0  0  0  0  0
    4.3304    2.2344    2.8648 H   0  0  0  0  0  0  0  0  0  0  0  0
    4.9154    0.5791    3.3672 H   0  0  0  0  0  0  0  0  0  0  0  0
    2.9815   -0.5081    2.6279 H   0  0  0  0  0  0  0  0  0  0  0  0
    2.4964    1.9695    1.1108 H   0  0  0  0  0  0  0  0  0  0  0  0
    1.9213    0.3055    0.7792 H   0  0  0  0  0  0  0  0  0  0  0  0
   -0.1141    2.6891    3.6727 H   0  0  0  0  0  0  0  0  0  0  0  0
    1.1508    3.4885    2.6473 H   0  0  0  0  0  0  0  0  0  0  0  0
    1.5542    2.2674    5.1288 H   0  0  0  0  0  0  0  0  0  0  0  0
    2.8116    2.8980    4.0523 H   0  0  0  0  0  0  0  0  0  0  0  0
    0.1384    0.0408   -0.1613 H   0  0  0  0  0  0  0  0  0  0  0  0
   -0.0712   -1.0656    1.1953 H   0  0  0  0  0  0  0  0  0  0  0  0
   -2.4072   -0.8351    1.3352 H   0  0  0  0  0  0  0  0  0  0  0  0
   -1.8918   -1.4319   -0.2413 H   0  0  0  0  0  0  0  0  0  0  0  0
   -3.0565    1.3693    0.4934 H   0  0  0  0  0  0  0  0  0  0  0  0
   -1.2338    1.1410   -1.6171 H   0  0  0  0  0  0  0  0  0  0  0  0
   -2.6760    2.1806   -1.6048 H   0  0  0  0  0  0  0  0  0  0  0  0
   -3.1771    0.8973   -3.4233 H   0  0  0  0  0  0  0  0  0  0  0  0
   -2.2141   -0.5472   -2.8423 H   0  0  0  0  0  0  0  0  0  0  0  0
   -5.3330   -0.9888   -3.5617 H   0  0  0  0  0  0  0  0  0  0  0  0
   -9.4328   -2.4879   -1.9013 H   0  0  0  0  0  0  0  0  0  0  0  0
   -8.9702   -0.7578   -1.4482 H   0  0  0  0  0  0  0  0  0  0  0  0
   -9.2849   -2.0334    0.5527 H   0  0  0  0  0  0  0  0  0  0  0  0
   -8.2075   -3.3431   -0.0817 H   0  0  0  0  0  0  0  0  0  0  0  0
   -5.0925   -0.3989    1.3026 H   0  0  0  0  0  0  0  0  0  0  0  0
  1  2  3  0
  2  3  1  0
  3  4  2  0
  4  5  1  0
  5  6  2  0
  6  7  1  0
  7  8  2  0
  6  9  1  0
  9 10  2  0
  9 11  1  0
 11 12  1  0
 12 13  1  0
 13 14  1  0
 14 15  1  0
 15 16  1  0
 16 17  1  0
 17 18  1  0
 15 19  1  0
 19 20  2  0
 19 21  1  0
 21 22  1  0
 22 23  1  0
 23 24  1  0
 24 25  1  0
 25 26  1  0
 26 27  2  0
 27 28  1  0
 28 29  1  0
 29 30  1  0
 30 31  1  0
 31 32  1  0
 32 33  1  0
 33 34  1  0
 34 35  2  0
  8  3  1  0
 18 13  1  0
 35 23  1  0
 35 26  1  0
 33 28  2  0
  4 36  1  0
  5 37  1  0
  7 38  1  0
  8 39  1  0
 11 40  1  0
 12 41  1  0
 12 42  1  0
 13 43  1  6
 14 44  1  0
 14 45  1  0
 16 46  1  0
 16 47  1  0
 17 48  1  0
 17 49  1  0
 21 50  1  0
 21 51  1  0
 22 52  1  0
 22 53  1  0
 23 54  1  1
 24 55  1  0
 24 56  1  0
 25 57  1  0
 25 58  1  0
 27 59  1  0
 30 60  1  0
 30 61  1  0
 31 62  1  0
 31 63  1  0
 34 64  1  0
M  END
$$$$
[H]Oc1c([H])c([H])c([H])c2sc(C3=NC([H])([H])C4([H])C([H])([H])c5c([H])c(OC([H])([H])[H])c(OC([H])([H])[H])c([H])c5OC([H])([H])C34[H])nc12
     RDKit          3D

 48 52  0  0  0  0  0  0  0  0999 V2000
    5.3287    0.4201    3.5105 C   0  0  0  0  0  0  0  0  0  0  0  0
    5.5517    0.2968    2.1213 O   0  0  0  0  0  0  0  0  0  0  0  0
    4.5034    0.2625    1.2111 C   0  0  0  0  0  0  0  0  0  0  0  0
    3.1866    0.3458    1.6013 C   0  0  0  0  0  0  0  0  0  0  0  0
    2.1922    0.3057    0.6472 C   0  0  0  0  0  0  0  0  0  0  0  0
    0.9112    0.3988    1.1721 O   0  0  0  0  0  0  0  0  0  0  0  0
   -0.3301   -0.1272    0.7807 C   0  0  0  0  0  0  0  0  0  0  0  0
   -0.5567   -0.2070   -0.6890 C   0  0  0  0  0  0  0  0  0  0  0  0
    0.2783    0.7272   -1.5057 C   0  0  0  0  0  0  0  0  0  0  0  0
   -0.5890    1.0501   -2.6727 C   0  0  0  0  0  0  0  0  0  0  0  0
   -1.9194    0.8446   -2.1850 N   0  0  0  0  0  0  0  0  0  0  0  0
   -1.9258    0.1583   -1.0992 C   0  0  0  0  0  0  0  0  0  0  0  0
   -3.1643   -0.1940   -0.3916 C   0  0  0  0  0  0  0  0  0  0  0  0
   -4.4091    0.1039   -0.7106 N   0  0  0  0  0  0  0  0  0  0  0  0
   -5.3908   -0.2977    0.0428 C   0  0  0  0  0  0  0  0  0  0  0  0
   -6.7596   -0.0478   -0.1853 C   0  0  0  0  0  0  0  0  0  0  0  0
   -7.1992    0.6823   -1.2847 O   0  0  0  0  0  0  0  0  0  0  0  0
   -7.6845   -0.5327    0.6929 C   0  0  0  0  0  0  0  0  0  0  0  0
   -7.3893   -1.2675    1.8174 C   0  0  0  0  0  0  0  0  0  0  0  0
   -6.0553   -1.5145    2.0452 C   0  0  0  0  0  0  0  0  0  0  0  0
   -5.0795   -1.0278    1.1581 C   0  0  0  0  0  0  0  0  0  0  0  0
   -3.3696   -1.0933    1.0535 S   0  0  0  0  0  0  0  0  0  0  0  0
    1.6047    0.1189   -1.9015 C   0  0  0  0  0  0  0  0  0  0  0  0
    2.4843    0.1828   -0.7054 C   0  0  0  0  0  0  0  0  0  0  0  0
    3.8103    0.0987   -1.1016 C   0  0  0  0  0  0  0  0  0  0  0  0
    4.8129    0.1388   -0.1422 C   0  0  0  0  0  0  0  0  0  0  0  0
    6.1491    0.0573   -0.5013 O   0  0  0  0  0  0  0  0  0  0  0  0
    6.4783   -0.0696   -1.8849 C   0  0  0  0  0  0  0  0  0  0  0  0
    4.5447    1.1607    3.7447 H   0  0  0  0  0  0  0  0  0  0  0  0
    5.0159   -0.5436    3.9671 H   0  0  0  0  0  0  0  0  0  0  0  0
    6.2461    0.7351    4.0296 H   0  0  0  0  0  0  0  0  0  0  0  0
    2.9707    0.4406    2.6489 H   0  0  0  0  0  0  0  0  0  0  0  0
   -1.1278    0.4197    1.3257 H   0  0  0  0  0  0  0  0  0  0  0  0
   -0.3810   -1.1786    1.1865 H   0  0  0  0  0  0  0  0  0  0  0  0
   -0.3924   -1.2598   -1.0660 H   0  0  0  0  0  0  0  0  0  0  0  0
    0.4659    1.6421   -0.8916 H   0  0  0  0  0  0  0  0  0  0  0  0
   -0.4122    0.3263   -3.4928 H   0  0  0  0  0  0  0  0  0  0  0  0
   -0.4425    2.1096   -3.0246 H   0  0  0  0  0  0  0  0  0  0  0  0
   -6.5325    1.0593   -1.9611 H   0  0  0  0  0  0  0  0  0  0  0  0
   -8.7560   -0.3281    0.5002 H   0  0  0  0  0  0  0  0  0  0  0  0
   -8.1314   -1.6295    2.4794 H   0  0  0  0  0  0  0  0  0  0  0  0
   -5.6828   -2.0733    2.8825 H   0  0  0  0  0  0  0  0  0  0  0  0
    1.4152   -0.9642   -2.0905 H   0  0  0  0  0  0  0  0  0  0  0  0
    2.0325    0.6013   -2.7846 H   0  0  0  0  0  0  0  0  0  0  0  0
    4.0613    0.0017   -2.1591 H   0  0  0  0  0  0  0  0  0  0  0  0
    7.5695   -0.0264   -2.0337 H   0  0  0  0  0  0  0  0  0  0  0  0
    5.9476    0.7317   -2.4434 H   0  0  0  0  0  0  0  0  0  0  0  0
    6.1197   -1.0383   -2.2980 H   0  0  0  0  0  0  0  0  0  0  0  0
  1  2  1  0
  2  3  1  0
  3  4  2  0
  4  5  1  0
  5  6  1  0
  6  7  1  0
  7  8  1  0
  8  9  1  0
  9 10  1  0
 10 11  1  0
 11 12  2  0
 12 13  1  0
 13 14  2  0
 14 15  1  0
 15 16  2  0
 16 17  1  0
 16 18  1  0
 18 19  2  0
 19 20  1  0
 20 21  2  0
 21 22  1  0
  9 23  1  0
 23 24  1  0
 24 25  1  0
 25 26  2  0
 26 27  1  0
 27 28  1  0
 26  3  1  0
 24  5  2  0
 12  8  1  0
 22 13  1  0
 21 15  1  0
  1 29  1  0
  1 30  1  0
  1 31  1  0
  4 32  1  0
  7 33  1  0
  7 34  1  0
  8 35  1  0
  9 36  1  0
 10 37  1  0
 10 38  1  0
 17 39  1  0
 18 40  1  0
 19 41  1  0
 20 42  1  0
 23 43  1  0
 23 44  1  0
 25 45  1  0
 28 46  1  0
 28 47  1  0
 28 48  1  0
M  END
$$$$
[H]c1nc(N([H])[H])c2nc(C([H])([H])[H])n(C([H])([H])C([H])([H])N(C([H])([H])[H])C3([H])C([H])([H])C([H])([H])N(C(=O)c4c([H])c(F)c([H])c(F)c4[H])C([H])([H])C3([H])[H])c2n1
     RDKit          3D

 56 59  0  0  0  0  0  0  0  0999 V2000
   -0.3354   -0.2677    2.0844 C   0  0  0  0  0  0  0  0  0  0  0  0
   -0.6395   -0.3111    0.7162 N   0  0  0  0  0  0  0  0  0  0  0  0
   -1.9396    0.0058    0.2762 C   0  0  0  0  0  0  0  0  0  0  0  0
   -3.0354   -0.9456    0.6142 C   0  0  0  0  0  0  0  0  0  0  0  0
   -4.2796   -0.3894    0.0636 N   0  0  0  0  0  0  0  0  0  0  0  0
   -4.8210   -0.5726   -1.1491 C   0  0  0  0  0  0  0  0  0  0  0  0
   -4.2009   -1.4223   -2.2158 C   0  0  0  0  0  0  0  0  0  0  0  0
   -5.9867    0.1226   -1.2452 N   0  0  0  0  0  0  0  0  0  0  0  0
   -6.1664    0.7413   -0.0798 C   0  0  0  0  0  0  0  0  0  0  0  0
   -7.1736    1.5782    0.3825 C   0  0  0  0  0  0  0  0  0  0  0  0
   -8.2850    1.9271   -0.4314 N   0  0  0  0  0  0  0  0  0  0  0  0
   -7.0368    2.0339    1.6375 N   0  0  0  0  0  0  0  0  0  0  0  0
   -6.0131    1.7393    2.4550 C   0  0  0  0  0  0  0  0  0  0  0  0
   -5.0389    0.9332    2.0130 N   0  0  0  0  0  0  0  0  0  0  0  0
   -5.1098    0.4398    0.7658 C   0  0  0  0  0  0  0  0  0  0  0  0
    0.3909   -0.3842   -0.2359 C   0  0  0  0  0  0  0  0  0  0  0  0
    1.3011    0.8065   -0.2591 C   0  0  0  0  0  0  0  0  0  0  0  0
    2.7160    0.5249    0.2008 C   0  0  0  0  0  0  0  0  0  0  0  0
    3.3242   -0.5505   -0.5176 N   0  0  0  0  0  0  0  0  0  0  0  0
    2.3465   -1.4386   -1.2142 C   0  0  0  0  0  0  0  0  0  0  0  0
    1.2031   -1.6747   -0.2227 C   0  0  0  0  0  0  0  0  0  0  0  0
    4.6761   -0.8651   -0.6330 C   0  0  0  0  0  0  0  0  0  0  0  0
    4.8841   -1.9124   -1.4012 O   0  0  0  0  0  0  0  0  0  0  0  0
    5.8646   -0.2852   -0.0945 C   0  0  0  0  0  0  0  0  0  0  0  0
    5.9132    0.7332    0.8209 C   0  0  0  0  0  0  0  0  0  0  0  0
    7.0974    1.2968    1.2914 C   0  0  0  0  0  0  0  0  0  0  0  0
    7.0888    2.3082    2.1998 F   0  0  0  0  0  0  0  0  0  0  0  0
    8.2839    0.8180    0.8262 C   0  0  0  0  0  0  0  0  0  0  0  0
    8.3121   -0.2036   -0.0924 C   0  0  0  0  0  0  0  0  0  0  0  0
    9.4982   -0.6931   -0.5681 F   0  0  0  0  0  0  0  0  0  0  0  0
    7.1296   -0.7312   -0.5325 C   0  0  0  0  0  0  0  0  0  0  0  0
   -0.3458   -1.2458    2.6083 H   0  0  0  0  0  0  0  0  0  0  0  0
   -1.1119    0.3740    2.5982 H   0  0  0  0  0  0  0  0  0  0  0  0
    0.6194    0.2322    2.2653 H   0  0  0  0  0  0  0  0  0  0  0  0
   -2.2259    1.0040    0.7036 H   0  0  0  0  0  0  0  0  0  0  0  0
   -1.9447    0.1531   -0.8241 H   0  0  0  0  0  0  0  0  0  0  0  0
   -2.9199   -1.9529    0.1800 H   0  0  0  0  0  0  0  0  0  0  0  0
   -3.1303   -1.0902    1.7012 H   0  0  0  0  0  0  0  0  0  0  0  0
   -4.3844   -0.8440   -3.1684 H   0  0  0  0  0  0  0  0  0  0  0  0
   -4.7598   -2.3675   -2.3356 H   0  0  0  0  0  0  0  0  0  0  0  0
   -3.1258   -1.5261   -2.0705 H   0  0  0  0  0  0  0  0  0  0  0  0
   -8.4334    2.9419   -0.6212 H   0  0  0  0  0  0  0  0  0  0  0  0
   -8.9462    1.2528   -0.8457 H   0  0  0  0  0  0  0  0  0  0  0  0
   -5.9821    2.1620    3.4784 H   0  0  0  0  0  0  0  0  0  0  0  0
   -0.1202   -0.4097   -1.2511 H   0  0  0  0  0  0  0  0  0  0  0  0
    1.3758    1.2083   -1.2846 H   0  0  0  0  0  0  0  0  0  0  0  0
    0.8881    1.5576    0.4521 H   0  0  0  0  0  0  0  0  0  0  0  0
    3.2796    1.4567   -0.1328 H   0  0  0  0  0  0  0  0  0  0  0  0
    2.7968    0.4888    1.2929 H   0  0  0  0  0  0  0  0  0  0  0  0
    2.8424   -2.3508   -1.5161 H   0  0  0  0  0  0  0  0  0  0  0  0
    1.9752   -0.8325   -2.0531 H   0  0  0  0  0  0  0  0  0  0  0  0
    0.6398   -2.5401   -0.5846 H   0  0  0  0  0  0  0  0  0  0  0  0
    1.6434   -1.8910    0.7418 H   0  0  0  0  0  0  0  0  0  0  0  0
    5.0226    1.1493    1.2496 H   0  0  0  0  0  0  0  0  0  0  0  0
    9.2256    1.2451    1.1789 H   0  0  0  0  0  0  0  0  0  0  0  0
    7.1535   -1.5367   -1.2560 H   0  0  0  0  0  0  0  0  0  0  0  0
  1  2  1  0
  2  3  1  0
  3  4  1  0
  4  5  1  0
  5  6  1  0
  6  7  1  0
  6  8  2  0
  8  9  1  0
  9 10  2  0
 10 11  1  0
 10 12  1  0
 12 13  2  0
 13 14  1  0
 14 15  2  0
  2 16  1  0
 16 17  1  0
 17 18  1  0
 18 19  1  0
 19 20  1  0
 20 21  1  0
 19 22  1  0
 22 23  2  0
 22 24  1  0
 24 25  2  0
 25 26  1  0
 26 27  1  0
 26 28  2  0
 28 29  1  0
 29 30  1  0
 29 31  2  0
 15  5  1  0
 21 16  1  0
 31 24  1  0
 15  9  1  0
  1 32  1  0
  1 33  1  0
  1 34  1  0
  3 35  1  0
  3 36  1  0
  4 37  1  0
  4 38  1  0
  7 39  1  0
  7 40  1  0
  7 41  1  0
 11 42  1  0
 11 43  1  0
 13 44  1  0
 16 45  1  0
 17 46  1  0
 17 47  1  0
 18 48  1  0
 18 49  1  0
 20 50  1  0
 20 51  1  0
 21 52  1  0
 21 53  1  0
 25 54  1  0
 28 55  1  0
 31 56  1  0
M  END
$$$$
[H]OC(=O)C([H])([H])C([H])([H])[C@@]([H])(C(=O)O[H])N([H])C(=O)c1c([H])c([H])c(Sc2c(C([H])([H])[H])n(C([H])([H])[H])c(N([H])[H])nc2=O)c([H])c1[H]
     RDKit          3D

 49 50  0  0  0  0  0  0  0  0999 V2000
    3.9752   -2.1467    0.9009 C   0  0  0  0  0  0  0  0  0  0  0  0
    4.5977   -0.9094    0.3887 C   0  0  0  0  0  0  0  0  0  0  0  0
    4.2201    0.3161    0.8593 C   0  0  0  0  0  0  0  0  0  0  0  0
    2.9650    0.4842    2.1070 S   0  0  0  0  0  0  0  0  0  0  0  0
    1.3655    0.6280    1.3559 C   0  0  0  0  0  0  0  0  0  0  0  0
    0.2547    0.7682    2.1310 C   0  0  0  0  0  0  0  0  0  0  0  0
   -0.9853    0.8790    1.5283 C   0  0  0  0  0  0  0  0  0  0  0  0
   -1.0898    0.8476    0.1708 C   0  0  0  0  0  0  0  0  0  0  0  0
    0.0401    0.7042   -0.6451 C   0  0  0  0  0  0  0  0  0  0  0  0
    1.2589    0.5959   -0.0330 C   0  0  0  0  0  0  0  0  0  0  0  0
   -2.3769    0.9624   -0.4715 C   0  0  0  0  0  0  0  0  0  0  0  0
   -2.4369    0.9207   -1.7270 O   0  0  0  0  0  0  0  0  0  0  0  0
   -3.5714    1.1185    0.2231 N   0  0  0  0  0  0  0  0  0  0  0  0
   -4.8773    1.2355   -0.4130 C   0  0  1  0  0  0  0  0  0  0  0  0
   -5.8845    0.3083    0.1774 C   0  0  0  0  0  0  0  0  0  0  0  0
   -5.5805   -1.1390    0.1050 C   0  0  0  0  0  0  0  0  0  0  0  0
   -5.4201   -1.7055   -1.2271 C   0  0  0  0  0  0  0  0  0  0  0  0
   -5.1259   -3.0471   -1.4113 O   0  0  0  0  0  0  0  0  0  0  0  0
   -5.5391   -1.0140   -2.2657 O   0  0  0  0  0  0  0  0  0  0  0  0
   -5.3450    2.6260   -0.1291 C   0  0  0  0  0  0  0  0  0  0  0  0
   -6.5747    3.0142   -0.6226 O   0  0  0  0  0  0  0  0  0  0  0  0
   -4.6737    3.4523    0.5343 O   0  0  0  0  0  0  0  0  0  0  0  0
    4.8064    1.4904    0.3775 C   0  0  0  0  0  0  0  0  0  0  0  0
    4.4446    2.6015    0.8233 O   0  0  0  0  0  0  0  0  0  0  0  0
    5.7493    1.3596   -0.5606 N   0  0  0  0  0  0  0  0  0  0  0  0
    6.1106    0.1451   -1.0143 C   0  0  0  0  0  0  0  0  0  0  0  0
    7.1244    0.0961   -2.0155 N   0  0  0  0  0  0  0  0  0  0  0  0
    5.5463   -0.9824   -0.5504 N   0  0  0  0  0  0  0  0  0  0  0  0
    6.0130   -2.2439   -1.1116 C   0  0  0  0  0  0  0  0  0  0  0  0
    4.7508   -2.9163    1.1311 H   0  0  0  0  0  0  0  0  0  0  0  0
    3.2224   -2.5537    0.1832 H   0  0  0  0  0  0  0  0  0  0  0  0
    3.4582   -1.9340    1.8636 H   0  0  0  0  0  0  0  0  0  0  0  0
    0.3437    0.7922    3.2003 H   0  0  0  0  0  0  0  0  0  0  0  0
   -1.8455    0.9899    2.2064 H   0  0  0  0  0  0  0  0  0  0  0  0
   -0.0627    0.6808   -1.7391 H   0  0  0  0  0  0  0  0  0  0  0  0
    2.1248    0.4857   -0.6654 H   0  0  0  0  0  0  0  0  0  0  0  0
   -3.5767    1.1591    1.2609 H   0  0  0  0  0  0  0  0  0  0  0  0
   -4.7604    1.1811   -1.5062 H   0  0  0  0  0  0  0  0  0  0  0  0
   -6.8894    0.5038   -0.2458 H   0  0  0  0  0  0  0  0  0  0  0  0
   -5.9448    0.5712    1.2749 H   0  0  0  0  0  0  0  0  0  0  0  0
   -4.6762   -1.4155    0.7235 H   0  0  0  0  0  0  0  0  0  0  0  0
   -6.4245   -1.6680    0.6408 H   0  0  0  0  0  0  0  0  0  0  0  0
   -5.3284   -3.7577   -0.7043 H   0  0  0  0  0  0  0  0  0  0  0  0
   -6.8449    3.9622   -0.8174 H   0  0  0  0  0  0  0  0  0  0  0  0
    7.7948   -0.6985   -2.1136 H   0  0  0  0  0  0  0  0  0  0  0  0
    7.2132    0.8911   -2.6948 H   0  0  0  0  0  0  0  0  0  0  0  0
    6.9321   -2.5387   -0.5803 H   0  0  0  0  0  0  0  0  0  0  0  0
    5.2353   -3.0271   -1.0706 H   0  0  0  0  0  0  0  0  0  0  0  0
    6.2877   -2.0731   -2.1739 H   0  0  0  0  0  0  0  0  0  0  0  0
  1  2  1  0
  2  3  2  0
  3  4  1  0
  4  5  1  0
  5  6  2  0
  6  7  1  0
  7  8  2  0
  8  9  1  0
  9 10  2  0
  8 11  1  0
 11 12  2  0
 11 13  1  0
 13 14  1  0
 14 15  1  0
 15 16  1  0
 16 17  1  0
 17 18  1  0
 17 19  2  0
 14 20  1  0
 20 21  1  0
 20 22  2  0
  3 23  1  0
 23 24  2  0
 23 25  1  0
 25 26  2  0
 26 27  1  0
 26 28  1  0
 28 29  1  0
 28  2  1  0
 10  5  1  0
  1 30  1  0
  1 31  1  0
  1 32  1  0
  6 33  1  0
  7 34  1  0
  9 35  1  0
 10 36  1  0
 13 37  1  0
 14 38  1  6
 15 39  1  0
 15 40  1  0
 16 41  1  0
 16 42  1  0
 18 43  1  0
 21 44  1  0
 27 45  1  0
 27 46  1  0
 29 47  1  0
 29 48  1  0
 29 49  1  0
M  END
$$$$
[H]/C(C(=O)N([H])[C@@]1([H])C([H])([H])N(C([H])([H])c2c([H])c([H])c([H])c([H])c2[H])C([H])([H])C([H])([H])C1([H])[H])=C(/[H])c1c([H])c([H])c([H])c(Cl)c1[H]
     RDKit          3D

 48 50  0  0  0  0  0  0  0  0999 V2000
    8.5022   -0.5449   -2.2698 Cl  0  0  0  0  0  0  0  0  0  0  0  0
    7.5320    0.3151   -1.0861 C   0  0  0  0  0  0  0  0  0  0  0  0
    8.1593    1.2202   -0.2658 C   0  0  0  0  0  0  0  0  0  0  0  0
    7.4214    1.9089    0.6721 C   0  0  0  0  0  0  0  0  0  0  0  0
    6.0445    1.6852    0.7848 C   0  0  0  0  0  0  0  0  0  0  0  0
    5.3850    0.7900   -0.0164 C   0  0  0  0  0  0  0  0  0  0  0  0
    3.9625    0.5138    0.0513 C   0  0  0  0  0  0  0  0  0  0  0  0
    3.1481    1.0874    0.8841 C   0  0  0  0  0  0  0  0  0  0  0  0
    1.7217    0.8459    0.9902 C   0  0  0  0  0  0  0  0  0  0  0  0
    1.0601    1.4726    1.8413 O   0  0  0  0  0  0  0  0  0  0  0  0
    1.0835   -0.0799    0.1502 N   0  0  0  0  0  0  0  0  0  0  0  0
   -0.3448   -0.3258    0.2525 C   0  0  2  0  0  0  0  0  0  0  0  0
   -0.6808   -1.7486    0.5921 C   0  0  0  0  0  0  0  0  0  0  0  0
   -1.4839   -2.4540   -0.4459 C   0  0  0  0  0  0  0  0  0  0  0  0
   -2.6078   -1.6848   -1.0507 C   0  0  0  0  0  0  0  0  0  0  0  0
   -2.4375   -0.3013   -0.8248 N   0  0  0  0  0  0  0  0  0  0  0  0
   -3.1170    0.3106    0.2427 C   0  0  0  0  0  0  0  0  0  0  0  0
   -4.5770    0.2543    0.2175 C   0  0  0  0  0  0  0  0  0  0  0  0
   -5.2649   -0.7369    0.8852 C   0  0  0  0  0  0  0  0  0  0  0  0
   -6.6405   -0.7858    0.8590 C   0  0  0  0  0  0  0  0  0  0  0  0
   -7.3431    0.1646    0.1587 C   0  0  0  0  0  0  0  0  0  0  0  0
   -6.6808    1.1718   -0.5213 C   0  0  0  0  0  0  0  0  0  0  0  0
   -5.2927    1.2046   -0.4832 C   0  0  0  0  0  0  0  0  0  0  0  0
   -1.0832    0.0835   -1.0218 C   0  0  0  0  0  0  0  0  0  0  0  0
    6.1853    0.1182   -0.9522 C   0  0  0  0  0  0  0  0  0  0  0  0
    9.2272    1.3849   -0.3629 H   0  0  0  0  0  0  0  0  0  0  0  0
    7.9385    2.6182    1.3084 H   0  0  0  0  0  0  0  0  0  0  0  0
    5.5094    2.2432    1.5286 H   0  0  0  0  0  0  0  0  0  0  0  0
    3.5411   -0.2263   -0.6428 H   0  0  0  0  0  0  0  0  0  0  0  0
    3.6196    1.8267    1.5645 H   0  0  0  0  0  0  0  0  0  0  0  0
    1.5996   -0.6270   -0.5771 H   0  0  0  0  0  0  0  0  0  0  0  0
   -0.7495    0.3190    1.0567 H   0  0  0  0  0  0  0  0  0  0  0  0
   -1.1304   -1.8775    1.5951 H   0  0  0  0  0  0  0  0  0  0  0  0
    0.3096   -2.2903    0.6573 H   0  0  0  0  0  0  0  0  0  0  0  0
   -0.7902   -2.8943   -1.2139 H   0  0  0  0  0  0  0  0  0  0  0  0
   -1.9337   -3.3629    0.0543 H   0  0  0  0  0  0  0  0  0  0  0  0
   -3.6153   -2.0723   -0.7263 H   0  0  0  0  0  0  0  0  0  0  0  0
   -2.5971   -1.9338   -2.1553 H   0  0  0  0  0  0  0  0  0  0  0  0
   -2.7283   -0.1369    1.2061 H   0  0  0  0  0  0  0  0  0  0  0  0
   -2.7769    1.3853    0.3115 H   0  0  0  0  0  0  0  0  0  0  0  0
   -4.6884   -1.4804    1.4342 H   0  0  0  0  0  0  0  0  0  0  0  0
   -7.1953   -1.5436    1.3681 H   0  0  0  0  0  0  0  0  0  0  0  0
   -8.4335    0.1608    0.1134 H   0  0  0  0  0  0  0  0  0  0  0  0
   -7.1895    1.9420   -1.0860 H   0  0  0  0  0  0  0  0  0  0  0  0
   -4.7281    1.9711   -0.9984 H   0  0  0  0  0  0  0  0  0  0  0  0
   -0.9429    1.1616   -1.2314 H   0  0  0  0  0  0  0  0  0  0  0  0
   -0.5757   -0.4589   -1.8422 H   0  0  0  0  0  0  0  0  0  0  0  0
    5.6781   -0.5932   -1.5933 H   0  0  0  0  0  0  0  0  0  0  0  0
  1  2  1  0
  2  3  2  0
  3  4  1  0
  4  5  2  0
  5  6  1  0
  6  7  1  0
  7  8  2  0
  8  9  1  0
  9 10  2  0
  9 11  1  0
 11 12  1  0
 12 13  1  0
 13 14  1  0
 14 15  1  0
 15 16  1  0
 16 17  1  0
 17 18  1  0
 18 19  2  0
 19 20  1  0
 20 21  2  0
 21 22  1  0
 22 23  2  0
 16 24  1  0
  6 25  2  0
 25  2  1  0
 24 12  1  0
 23 18  1  0
  3 26  1  0
  4 27  1  0
  5 28  1  0
  7 29  1  0
  8 30  1  0
 11 31  1  0
 12 32  1  1
 13 33  1  0
 13 34  1  0
 14 35  1  0
 14 36  1  0
 15 37  1  0
 15 38  1  0
 17 39  1  0
 17 40  1  0
 19 41  1  0
 20 42  1  0
 21 43  1  0
 22 44  1  0
 23 45  1  0
 24 46  1  0
 24 47  1  0
 25 48  1  0
M  END
$$$$
[H]OC(c1c([H])c([H])c2c(c1[H])C([H])([H])C([H])([H])[C@@]1([H])C([H])([H])N(C(=O)c3c([H])c([H])c(Cl)c([H])c3[H])C([H])([H])C([H])([H])N(C([H])([H])[H])C([H])([H])C([H])([H])[C@]21[H])(C(F)(F)F)C(F)(F)F
     RDKit          3D

 64 67  0  0  0  0  0  0  0  0999 V2000
    1.8665   -3.8581   -0.5213 C   0  0  0  0  0  0  0  0  0  0  0  0
    1.6950   -2.4906   -1.0406 N   0  0  0  0  0  0  0  0  0  0  0  0
    2.6883   -1.6422   -0.5198 C   0  0  0  0  0  0  0  0  0  0  0  0
    2.8004   -0.3608   -1.3455 C   0  0  0  0  0  0  0  0  0  0  0  0
    2.7034    0.8340   -0.5678 N   0  0  0  0  0  0  0  0  0  0  0  0
    1.4372    1.5909   -0.5388 C   0  0  0  0  0  0  0  0  0  0  0  0
    0.1960    0.8838   -0.8972 C   0  0  2  0  0  0  0  0  0  0  0  0
   -0.8193    2.0372   -1.2302 C   0  0  0  0  0  0  0  0  0  0  0  0
   -2.0567    1.4170   -1.8429 C   0  0  0  0  0  0  0  0  0  0  0  0
   -2.7483    0.7549   -0.6713 C   0  0  0  0  0  0  0  0  0  0  0  0
   -4.1145    0.7735   -0.5661 C   0  0  0  0  0  0  0  0  0  0  0  0
   -4.7121    0.1771    0.5216 C   0  0  0  0  0  0  0  0  0  0  0  0
   -3.9137   -0.4207    1.4737 C   0  0  0  0  0  0  0  0  0  0  0  0
   -2.5423   -0.4208    1.3359 C   0  0  0  0  0  0  0  0  0  0  0  0
   -1.9307    0.1802    0.2352 C   0  0  0  0  0  0  0  0  0  0  0  0
   -0.4490    0.0883    0.1849 C   0  0  1  0  0  0  0  0  0  0  0  0
   -0.0220   -1.3526    0.3006 C   0  0  0  0  0  0  0  0  0  0  0  0
    0.3393   -2.0597   -0.9400 C   0  0  0  0  0  0  0  0  0  0  0  0
   -6.1734    0.1574    0.6795 C   0  0  0  0  0  0  0  0  0  0  0  0
   -6.4801   -0.5590    1.8691 O   0  0  0  0  0  0  0  0  0  0  0  0
   -6.9024   -0.5855   -0.4160 C   0  0  0  0  0  0  0  0  0  0  0  0
   -8.2835   -0.5576   -0.1781 F   0  0  0  0  0  0  0  0  0  0  0  0
   -6.6669   -0.0719   -1.6581 F   0  0  0  0  0  0  0  0  0  0  0  0
   -6.4971   -1.9042   -0.4175 F   0  0  0  0  0  0  0  0  0  0  0  0
   -6.6950    1.5400    0.9134 C   0  0  0  0  0  0  0  0  0  0  0  0
   -6.4280    2.4109   -0.0927 F   0  0  0  0  0  0  0  0  0  0  0  0
   -6.1341    1.9917    2.1125 F   0  0  0  0  0  0  0  0  0  0  0  0
   -8.0638    1.4595    1.1274 F   0  0  0  0  0  0  0  0  0  0  0  0
    3.7048    1.4458    0.2038 C   0  0  0  0  0  0  0  0  0  0  0  0
    3.2796    2.5330    0.8246 O   0  0  0  0  0  0  0  0  0  0  0  0
    5.0773    1.0872    0.4197 C   0  0  0  0  0  0  0  0  0  0  0  0
    5.7813    1.8797    1.3593 C   0  0  0  0  0  0  0  0  0  0  0  0
    7.0967    1.6696    1.6513 C   0  0  0  0  0  0  0  0  0  0  0  0
    7.8235    0.6759    1.0531 C   0  0  0  0  0  0  0  0  0  0  0  0
    9.5046    0.4446    1.4596 Cl  0  0  0  0  0  0  0  0  0  0  0  0
    7.1645   -0.0988    0.1449 C   0  0  0  0  0  0  0  0  0  0  0  0
    5.8157    0.1106   -0.1605 C   0  0  0  0  0  0  0  0  0  0  0  0
    0.8878   -4.2191   -0.1262 H   0  0  0  0  0  0  0  0  0  0  0  0
    2.6152   -3.8310    0.2955 H   0  0  0  0  0  0  0  0  0  0  0  0
    2.1660   -4.5698   -1.3153 H   0  0  0  0  0  0  0  0  0  0  0  0
    3.6794   -2.1667   -0.7069 H   0  0  0  0  0  0  0  0  0  0  0  0
    2.7095   -1.4394    0.5475 H   0  0  0  0  0  0  0  0  0  0  0  0
    1.9161   -0.3808   -2.0830 H   0  0  0  0  0  0  0  0  0  0  0  0
    3.6437   -0.3482   -2.0502 H   0  0  0  0  0  0  0  0  0  0  0  0
    1.3070    2.0188    0.5014 H   0  0  0  0  0  0  0  0  0  0  0  0
    1.6260    2.5159   -1.1544 H   0  0  0  0  0  0  0  0  0  0  0  0
    0.2849    0.3914   -1.8575 H   0  0  0  0  0  0  0  0  0  0  0  0
   -1.0637    2.5839   -0.3088 H   0  0  0  0  0  0  0  0  0  0  0  0
   -0.3105    2.7033   -1.9392 H   0  0  0  0  0  0  0  0  0  0  0  0
   -2.7011    2.2234   -2.1868 H   0  0  0  0  0  0  0  0  0  0  0  0
   -1.7598    0.6844   -2.6069 H   0  0  0  0  0  0  0  0  0  0  0  0
   -4.6721    1.2669   -1.3574 H   0  0  0  0  0  0  0  0  0  0  0  0
   -4.4086   -0.8862    2.3256 H   0  0  0  0  0  0  0  0  0  0  0  0
   -1.9946   -0.9040    2.1295 H   0  0  0  0  0  0  0  0  0  0  0  0
   -0.1159    0.5627    1.1596 H   0  0  0  0  0  0  0  0  0  0  0  0
    0.7754   -1.5178    1.0562 H   0  0  0  0  0  0  0  0  0  0  0  0
   -0.9045   -1.8887    0.7802 H   0  0  0  0  0  0  0  0  0  0  0  0
   -0.0347   -1.5841   -1.8955 H   0  0  0  0  0  0  0  0  0  0  0  0
   -0.2560   -3.0307   -0.9653 H   0  0  0  0  0  0  0  0  0  0  0  0
   -6.6628   -1.5050    1.6552 H   0  0  0  0  0  0  0  0  0  0  0  0
    5.2427    2.6873    1.8676 H   0  0  0  0  0  0  0  0  0  0  0  0
    7.6199    2.2983    2.3821 H   0  0  0  0  0  0  0  0  0  0  0  0
    7.6906   -0.9013   -0.3581 H   0  0  0  0  0  0  0  0  0  0  0  0
    5.3786   -0.5238   -0.8906 H   0  0  0  0  0  0  0  0  0  0  0  0
  1  2  1  0
  2  3  1  0
  3  4  1  0
  4  5  1  0
  5  6  1  0
  6  7  1  0
  7  8  1  0
  8  9  1  0
  9 10  1  0
 10 11  2  0
 11 12  1  0
 12 13  2  0
 13 14  1  0
 14 15  2  0
 15 16  1  0
 16 17  1  0
 17 18  1  0
 12 19  1  0
 19 20  1  0
 19 21  1  0
 21 22  1  0
 21 23  1  0
 21 24  1  0
 19 25  1  0
 25 26  1  0
 25 27  1  0
 25 28  1  0
  5 29  1  0
 29 30  2  0
 29 31  1  0
 31 32  2  0
 32 33  1  0
 33 34  2  0
 34 35  1  0
 34 36  1  0
 36 37  2  0
 18  2  1  0
 37 31  1  0
 16  7  1  0
 15 10  1  0
  1 38  1  0
  1 39  1  0
  1 40  1  0
  3 41  1  0
  3 42  1  0
  4 43  1  0
  4 44  1  0
  6 45  1  0
  6 46  1  0
  7 47  1  6
  8 48  1  0
  8 49  1  0
  9 50  1  0
  9 51  1  0
 11 52  1  0
 13 53  1  0
 14 54  1  0
 16 55  1  1
 17 56  1  0
 17 57  1  0
 18 58  1  0
 18 59  1  0
 20 60  1  0
 32 61  1  0
 33 62  1  0
 36 63  1  0
 37 64  1  0
M  END
$$$$
[H]c1c([H])c([H])c(C([H])([H])OC(=O)[C@@]([H])(N([H])C(=O)[C@@]([H])(N([H])C(=O)C([H])([H])C([H])([H])C([H])([H])C([H])([H])C([H])([H])[H])C([H])([H])C2([H])C([H])([H])C([H])([H])C([H])([H])C([H])([H])C2([H])[H])C([H])([H])C([H])([H])C([H])([H])C([H])([H])N([H])[H])c([H])c1[H]
     RDKit          3D

 80 81  0  0  0  0  0  0  0  0999 V2000
    6.5554    5.4566    0.1648 C   0  0  0  0  0  0  0  0  0  0  0  0
    6.2251    5.4564   -1.3144 C   0  0  0  0  0  0  0  0  0  0  0  0
    6.0400    4.0402   -1.8293 C   0  0  0  0  0  0  0  0  0  0  0  0
    4.9159    3.3418   -1.0999 C   0  0  0  0  0  0  0  0  0  0  0  0
    4.7521    1.9508   -1.6314 C   0  0  0  0  0  0  0  0  0  0  0  0
    3.6391    1.2003   -0.9389 C   0  0  0  0  0  0  0  0  0  0  0  0
    3.0706    1.8484   -0.0270 O   0  0  0  0  0  0  0  0  0  0  0  0
    3.3515   -0.0978   -1.3583 N   0  0  0  0  0  0  0  0  0  0  0  0
    2.2744   -0.9244   -0.7450 C   0  0  1  0  0  0  0  0  0  0  0  0
    2.5703   -1.1454    0.6634 C   0  0  0  0  0  0  0  0  0  0  0  0
    1.7745   -1.9224    1.5995 C   0  0  0  0  0  0  0  0  0  0  0  0
    1.4992   -3.3664    1.2631 C   0  0  0  0  0  0  0  0  0  0  0  0
    0.7139   -3.9395    2.4369 C   0  0  0  0  0  0  0  0  0  0  0  0
    1.0676   -3.2562    3.7495 C   0  0  0  0  0  0  0  0  0  0  0  0
    0.6112   -1.7954    3.7532 C   0  0  0  0  0  0  0  0  0  0  0  0
    0.6081   -1.3140    2.2901 C   0  0  0  0  0  0  0  0  0  0  0  0
    1.0158   -0.2794   -1.1029 C   0  0  0  0  0  0  0  0  0  0  0  0
    1.0577    0.8998   -1.6900 O   0  0  0  0  0  0  0  0  0  0  0  0
   -0.3049   -0.7492   -0.9212 N   0  0  0  0  0  0  0  0  0  0  0  0
   -1.4516    0.0007   -1.3559 C   0  0  1  0  0  0  0  0  0  0  0  0
   -2.2725   -0.7414   -2.3829 C   0  0  0  0  0  0  0  0  0  0  0  0
   -2.7943   -2.0498   -1.8875 C   0  0  0  0  0  0  0  0  0  0  0  0
   -3.6177   -2.7750   -2.9311 C   0  0  0  0  0  0  0  0  0  0  0  0
   -4.8184   -1.9546   -3.3568 C   0  0  0  0  0  0  0  0  0  0  0  0
   -5.5868   -2.6791   -4.3517 N   0  0  0  0  0  0  0  0  0  0  0  0
   -2.2255    0.6834   -0.3183 C   0  0  0  0  0  0  0  0  0  0  0  0
   -1.9684    0.6775    0.9080 O   0  0  0  0  0  0  0  0  0  0  0  0
   -3.3760    1.4397   -0.6366 O   0  0  0  0  0  0  0  0  0  0  0  0
   -4.0986    2.0978    0.3663 C   0  0  0  0  0  0  0  0  0  0  0  0
   -4.6589    1.2740    1.4217 C   0  0  0  0  0  0  0  0  0  0  0  0
   -5.0410   -0.0209    1.2042 C   0  0  0  0  0  0  0  0  0  0  0  0
   -5.5771   -0.8102    2.2316 C   0  0  0  0  0  0  0  0  0  0  0  0
   -5.7282   -0.2866    3.4897 C   0  0  0  0  0  0  0  0  0  0  0  0
   -5.3458    1.0209    3.7238 C   0  0  0  0  0  0  0  0  0  0  0  0
   -4.8145    1.7906    2.6900 C   0  0  0  0  0  0  0  0  0  0  0  0
    7.3045    4.6939    0.3813 H   0  0  0  0  0  0  0  0  0  0  0  0
    5.6438    5.2365    0.7621 H   0  0  0  0  0  0  0  0  0  0  0  0
    6.8760    6.4670    0.4343 H   0  0  0  0  0  0  0  0  0  0  0  0
    7.0532    5.9190   -1.8602 H   0  0  0  0  0  0  0  0  0  0  0  0
    5.3162    6.0350   -1.5164 H   0  0  0  0  0  0  0  0  0  0  0  0
    6.9897    3.4685   -1.7945 H   0  0  0  0  0  0  0  0  0  0  0  0
    5.7304    4.1125   -2.8922 H   0  0  0  0  0  0  0  0  0  0  0  0
    5.1831    3.3347   -0.0212 H   0  0  0  0  0  0  0  0  0  0  0  0
    4.0067    3.9513   -1.2447 H   0  0  0  0  0  0  0  0  0  0  0  0
    5.6659    1.3596   -1.4834 H   0  0  0  0  0  0  0  0  0  0  0  0
    4.4579    2.0027   -2.6971 H   0  0  0  0  0  0  0  0  0  0  0  0
    3.8891   -0.5322   -2.1212 H   0  0  0  0  0  0  0  0  0  0  0  0
    2.3159   -1.8868   -1.3524 H   0  0  0  0  0  0  0  0  0  0  0  0
    3.6696   -1.5380    0.6812 H   0  0  0  0  0  0  0  0  0  0  0  0
    2.7614   -0.1370    1.1979 H   0  0  0  0  0  0  0  0  0  0  0  0
    2.5399   -2.0700    2.5202 H   0  0  0  0  0  0  0  0  0  0  0  0
    2.4370   -3.9401    1.2022 H   0  0  0  0  0  0  0  0  0  0  0  0
    0.8470   -3.4670    0.3776 H   0  0  0  0  0  0  0  0  0  0  0  0
    0.9053   -5.0176    2.5828 H   0  0  0  0  0  0  0  0  0  0  0  0
   -0.3794   -3.8220    2.3043 H   0  0  0  0  0  0  0  0  0  0  0  0
    2.1171   -3.3705    4.0321 H   0  0  0  0  0  0  0  0  0  0  0  0
    0.4618   -3.7650    4.5241 H   0  0  0  0  0  0  0  0  0  0  0  0
   -0.3513   -1.6435    4.2438 H   0  0  0  0  0  0  0  0  0  0  0  0
    1.4114   -1.2201    4.2578 H   0  0  0  0  0  0  0  0  0  0  0  0
    0.5590   -0.2232    2.2433 H   0  0  0  0  0  0  0  0  0  0  0  0
   -0.3257   -1.7922    1.8717 H   0  0  0  0  0  0  0  0  0  0  0  0
   -0.4783   -1.6680   -0.4900 H   0  0  0  0  0  0  0  0  0  0  0  0
   -0.9989    0.8624   -1.9677 H   0  0  0  0  0  0  0  0  0  0  0  0
   -1.6086   -0.9210   -3.2617 H   0  0  0  0  0  0  0  0  0  0  0  0
   -3.0962   -0.0838   -2.7089 H   0  0  0  0  0  0  0  0  0  0  0  0
   -1.9846   -2.7596   -1.6054 H   0  0  0  0  0  0  0  0  0  0  0  0
   -3.4829   -1.8523   -1.0411 H   0  0  0  0  0  0  0  0  0  0  0  0
   -4.0023   -3.7394   -2.5432 H   0  0  0  0  0  0  0  0  0  0  0  0
   -3.0300   -3.0230   -3.8415 H   0  0  0  0  0  0  0  0  0  0  0  0
   -5.4864   -1.7027   -2.5327 H   0  0  0  0  0  0  0  0  0  0  0  0
   -4.4469   -1.0354   -3.8875 H   0  0  0  0  0  0  0  0  0  0  0  0
   -5.2676   -3.6561   -4.4903 H   0  0  0  0  0  0  0  0  0  0  0  0
   -5.7384   -2.1609   -5.2291 H   0  0  0  0  0  0  0  0  0  0  0  0
   -3.5507    2.9722    0.7864 H   0  0  0  0  0  0  0  0  0  0  0  0
   -4.9743    2.5777   -0.1718 H   0  0  0  0  0  0  0  0  0  0  0  0
   -4.9604   -0.5114    0.2479 H   0  0  0  0  0  0  0  0  0  0  0  0
   -5.8805   -1.8370    2.0667 H   0  0  0  0  0  0  0  0  0  0  0  0
   -6.1416   -0.8877    4.2889 H   0  0  0  0  0  0  0  0  0  0  0  0
   -5.4808    1.3963    4.7273 H   0  0  0  0  0  0  0  0  0  0  0  0
   -4.5379    2.8031    2.9438 H   0  0  0  0  0  0  0  0  0  0  0  0
  1  2  1  0
  2  3  1  0
  3  4  1  0
  4  5  1  0
  5  6  1  0
  6  7  2  0
  6  8  1  0
  8  9  1  0
  9 10  1  0
 10 11  1  0
 11 12  1  0
 12 13  1  0
 13 14  1  0
 14 15  1  0
 15 16  1  0
  9 17  1  0
 17 18  2  0
 17 19  1  0
 19 20  1  0
 20 21  1  0
 21 22  1  0
 22 23  1  0
 23 24  1  0
 24 25  1  0
 20 26  1  0
 26 27  2  0
 26 28  1  0
 28 29  1  0
 29 30  1  0
 30 31  2  0
 31 32  1  0
 32 33  2  0
 33 34  1  0
 34 35  2  0
 16 11  1  0
 35 30  1  0
  1 36  1  0
  1 37  1  0
  1 38  1  0
  2 39  1  0
  2 40  1  0
  3 41  1  0
  3 42  1  0
  4 43  1  0
  4 44  1  0
  5 45  1  0
  5 46  1  0
  8 47  1  0
  9 48  1  6
 10 49  1  0
 10 50  1  0
 11 51  1  0
 12 52  1  0
 12 53  1  0
 13 54  1  0
 13 55  1  0
 14 56  1  0
 14 57  1  0
 15 58  1  0
 15 59  1  0
 16 60  1  0
 16 61  1  0
 19 62  1  0
 20 63  1  6
 21 64  1  0
 21 65  1  0
 22 66  1  0
 22 67  1  0
 23 68  1  0
 23 69  1  0
 24 70  1  0
 24 71  1  0
 25 72  1  0
 25 73  1  0
 29 74  1  0
 29 75  1  0
 31 76  1  0
 32 77  1  0
 33 78  1  0
 34 79  1  0
 35 80  1  0
M  END
$$$$
[H]OC([H])([H])[C@@]1([H])O[C@]([H])([C@]([H])(O[H])[C@]([H])(O[H])[C@@]([H])(N([H])C(=O)C([H])([H])[H])C([H])([H])C([H])(C([H])([H])[H])C([H])([H])[H])[C@@]1([H])O[H]
     RDKit          3D

 45 45  0  0  0  0  0  0  0  0999 V2000
    2.9427    3.7449   -0.9582 C   0  0  0  0  0  0  0  0  0  0  0  0
    1.7885    2.7321   -0.8313 C   0  0  0  0  0  0  0  0  0  0  0  0
    0.6816    3.2874   -0.7168 O   0  0  0  0  0  0  0  0  0  0  0  0
    2.0942    1.3851   -0.8571 N   0  0  0  0  0  0  0  0  0  0  0  0
    1.2675    0.2383   -0.7729 C   0  0  1  0  0  0  0  0  0  0  0  0
    1.4262   -0.6493    0.3712 C   0  0  0  0  0  0  0  0  0  0  0  0
    2.7754   -1.2644    0.5832 C   0  0  0  0  0  0  0  0  0  0  0  0
    2.6735   -2.2434    1.7972 C   0  0  0  0  0  0  0  0  0  0  0  0
    3.8343   -0.2543    1.0210 C   0  0  0  0  0  0  0  0  0  0  0  0
   -0.2364    0.6669   -0.9440 C   0  0  1  0  0  0  0  0  0  0  0  0
   -0.1792    1.2395   -2.2589 O   0  0  0  0  0  0  0  0  0  0  0  0
   -1.1558   -0.5040   -1.1040 C   0  0  1  0  0  0  0  0  0  0  0  0
   -0.6823   -1.5308   -1.8950 O   0  0  0  0  0  0  0  0  0  0  0  0
   -1.9105   -0.9652    0.0809 C   0  0  1  0  0  0  0  0  0  0  0  0
   -2.3794    0.0396    0.9326 O   0  0  0  0  0  0  0  0  0  0  0  0
   -3.5357    0.1675    0.1866 C   0  0  2  0  0  0  0  0  0  0  0  0
   -4.7922    0.4215    0.9469 C   0  0  0  0  0  0  0  0  0  0  0  0
   -5.1053   -0.5770    1.8592 O   0  0  0  0  0  0  0  0  0  0  0  0
   -3.4095   -1.2624   -0.2411 C   0  0  2  0  0  0  0  0  0  0  0  0
   -3.9504   -2.2044    0.5940 O   0  0  0  0  0  0  0  0  0  0  0  0
    3.8675    3.2324   -0.6320 H   0  0  0  0  0  0  0  0  0  0  0  0
    2.7605    4.5698   -0.2669 H   0  0  0  0  0  0  0  0  0  0  0  0
    3.0446    4.0170   -2.0106 H   0  0  0  0  0  0  0  0  0  0  0  0
    3.1438    1.1523   -1.0194 H   0  0  0  0  0  0  0  0  0  0  0  0
    1.3607   -0.3517   -1.7713 H   0  0  0  0  0  0  0  0  0  0  0  0
    1.1800   -0.0648    1.3203 H   0  0  0  0  0  0  0  0  0  0  0  0
    0.6505   -1.4692    0.4105 H   0  0  0  0  0  0  0  0  0  0  0  0
    3.1718   -1.8499   -0.2431 H   0  0  0  0  0  0  0  0  0  0  0  0
    3.6762   -2.6901    1.9211 H   0  0  0  0  0  0  0  0  0  0  0  0
    1.9730   -3.0400    1.5276 H   0  0  0  0  0  0  0  0  0  0  0  0
    2.3889   -1.7042    2.7019 H   0  0  0  0  0  0  0  0  0  0  0  0
    3.3413    0.7023    1.2527 H   0  0  0  0  0  0  0  0  0  0  0  0
    4.5530   -0.1449    0.1928 H   0  0  0  0  0  0  0  0  0  0  0  0
    4.3614   -0.6583    1.9310 H   0  0  0  0  0  0  0  0  0  0  0  0
   -0.5452    1.3920   -0.2361 H   0  0  0  0  0  0  0  0  0  0  0  0
    0.0710    0.4922   -2.8524 H   0  0  0  0  0  0  0  0  0  0  0  0
   -2.0378   -0.1063   -1.8159 H   0  0  0  0  0  0  0  0  0  0  0  0
   -0.6126   -2.3931   -1.4161 H   0  0  0  0  0  0  0  0  0  0  0  0
   -1.5172   -1.8230    0.6557 H   0  0  0  0  0  0  0  0  0  0  0  0
   -3.4547    0.8836   -0.6595 H   0  0  0  0  0  0  0  0  0  0  0  0
   -4.7270    1.3948    1.5124 H   0  0  0  0  0  0  0  0  0  0  0  0
   -5.6276    0.5733    0.2288 H   0  0  0  0  0  0  0  0  0  0  0  0
   -5.3223   -0.1996    2.7459 H   0  0  0  0  0  0  0  0  0  0  0  0
   -3.5003   -1.4406   -1.3279 H   0  0  0  0  0  0  0  0  0  0  0  0
   -4.3468   -2.9414    0.0572 H   0  0  0  0  0  0  0  0  0  0  0  0
  1  2  1  0
  2  3  2  0
  2  4  1  0
  4  5  1  0
  5  6  1  0
  6  7  1  0
  7  8  1  0
  7  9  1  0
  5 10  1  0
 10 11  1  0
 10 12  1  0
 12 13  1  0
 12 14  1  0
 14 15  1  0
 15 16  1  0
 16 17  1  0
 17 18  1  0
 16 19  1  0
 19 20  1  0
 19 14  1  0
  1 21  1  0
  1 22  1  0
  1 23  1  0
  4 24  1  0
  5 25  1  6
  6 26  1  0
  6 27  1  0
  7 28  1  0
  8 29  1  0
  8 30  1  0
  8 31  1  0
  9 32  1  0
  9 33  1  0
  9 34  1  0
 10 35  1  1
 11 36  1  0
 12 37  1  6
 13 38  1  0
 14 39  1  1
 16 40  1  6
 17 41  1  0
 17 42  1  0
 18 43  1  0
 19 44  1  6
 20 45  1  0
M  END
$$$$
[H]c1nc(N([H])[H])c(Oc2c(F)c([H])c([H])c([H])c2C([H])([H])[H])c([H])c1-c1c([H])nn2c([H])c(C3([H])C([H])([H])C([H])([H])N([H])C([H])([H])C3([H])[H])c([H])nc12
     RDKit          3D

 54 58  0  0  0  0  0  0  0  0999 V2000
   -5.1008    1.8169   -0.6442 C   0  0  0  0  0  0  0  0  0  0  0  0
   -6.1834    0.8947   -0.1963 C   0  0  0  0  0  0  0  0  0  0  0  0
   -7.4920    1.1678   -0.5218 C   0  0  0  0  0  0  0  0  0  0  0  0
   -8.5534    0.3806   -0.1503 C   0  0  0  0  0  0  0  0  0  0  0  0
   -8.2887   -0.7437    0.5901 C   0  0  0  0  0  0  0  0  0  0  0  0
   -6.9907   -1.0484    0.9351 C   0  0  0  0  0  0  0  0  0  0  0  0
   -6.8069   -2.1525    1.7124 F   0  0  0  0  0  0  0  0  0  0  0  0
   -5.9238   -0.2564    0.5590 C   0  0  0  0  0  0  0  0  0  0  0  0
   -4.6428   -0.5061    0.8696 O   0  0  0  0  0  0  0  0  0  0  0  0
   -3.5401   -0.9123    0.2095 C   0  0  0  0  0  0  0  0  0  0  0  0
   -2.3864   -0.0893    0.2677 C   0  0  0  0  0  0  0  0  0  0  0  0
   -1.2178   -0.4059   -0.3652 C   0  0  0  0  0  0  0  0  0  0  0  0
   -1.2206   -1.5913   -1.0770 C   0  0  0  0  0  0  0  0  0  0  0  0
   -2.3089   -2.3734   -1.1356 N   0  0  0  0  0  0  0  0  0  0  0  0
   -3.4862   -2.0724   -0.5092 C   0  0  0  0  0  0  0  0  0  0  0  0
   -4.5533   -2.9929   -0.6783 N   0  0  0  0  0  0  0  0  0  0  0  0
   -0.0320    0.4396   -0.3055 C   0  0  0  0  0  0  0  0  0  0  0  0
    0.0633    1.8081   -0.4502 C   0  0  0  0  0  0  0  0  0  0  0  0
    1.3308    2.1974   -0.3272 N   0  0  0  0  0  0  0  0  0  0  0  0
    2.0509    1.1001   -0.1058 N   0  0  0  0  0  0  0  0  0  0  0  0
    3.3805    1.0145    0.0799 C   0  0  0  0  0  0  0  0  0  0  0  0
    3.9757   -0.2104    0.2995 C   0  0  0  0  0  0  0  0  0  0  0  0
    3.1626   -1.3258    0.3201 C   0  0  0  0  0  0  0  0  0  0  0  0
    1.8382   -1.1881    0.1290 N   0  0  0  0  0  0  0  0  0  0  0  0
    1.2652    0.0103   -0.0845 C   0  0  0  0  0  0  0  0  0  0  0  0
    5.4562   -0.3178    0.5077 C   0  0  0  0  0  0  0  0  0  0  0  0
    5.8793    0.4399    1.7479 C   0  0  0  0  0  0  0  0  0  0  0  0
    7.3400    0.2215    1.9765 C   0  0  0  0  0  0  0  0  0  0  0  0
    8.1541    0.4258    0.8138 N   0  0  0  0  0  0  0  0  0  0  0  0
    7.4417    0.9828   -0.3046 C   0  0  0  0  0  0  0  0  0  0  0  0
    6.2148    0.2153   -0.6853 C   0  0  0  0  0  0  0  0  0  0  0  0
   -5.6061    2.7337   -1.0591 H   0  0  0  0  0  0  0  0  0  0  0  0
   -4.4951    1.4293   -1.4621 H   0  0  0  0  0  0  0  0  0  0  0  0
   -4.5058    2.1946    0.2341 H   0  0  0  0  0  0  0  0  0  0  0  0
   -7.6875    2.0701   -1.1134 H   0  0  0  0  0  0  0  0  0  0  0  0
   -9.5669    0.6658   -0.4496 H   0  0  0  0  0  0  0  0  0  0  0  0
   -9.1124   -1.3704    0.8885 H   0  0  0  0  0  0  0  0  0  0  0  0
   -2.4330    0.8389    0.8435 H   0  0  0  0  0  0  0  0  0  0  0  0
   -0.3083   -1.8728   -1.5914 H   0  0  0  0  0  0  0  0  0  0  0  0
   -4.5881   -3.8011   -0.0304 H   0  0  0  0  0  0  0  0  0  0  0  0
   -5.2891   -2.9078   -1.3993 H   0  0  0  0  0  0  0  0  0  0  0  0
   -0.7912    2.4443   -0.6363 H   0  0  0  0  0  0  0  0  0  0  0  0
    4.0031    1.9172    0.0586 H   0  0  0  0  0  0  0  0  0  0  0  0
    3.6338   -2.2909    0.4934 H   0  0  0  0  0  0  0  0  0  0  0  0
    5.6944   -1.3771    0.6606 H   0  0  0  0  0  0  0  0  0  0  0  0
    5.3341   -0.0349    2.6091 H   0  0  0  0  0  0  0  0  0  0  0  0
    5.6330    1.5203    1.6742 H   0  0  0  0  0  0  0  0  0  0  0  0
    7.4792   -0.8400    2.3122 H   0  0  0  0  0  0  0  0  0  0  0  0
    7.6797    0.8798    2.8147 H   0  0  0  0  0  0  0  0  0  0  0  0
    8.7910   -0.3438    0.5859 H   0  0  0  0  0  0  0  0  0  0  0  0
    7.2085    2.0426   -0.1187 H   0  0  0  0  0  0  0  0  0  0  0  0
    8.1412    0.9565   -1.1776 H   0  0  0  0  0  0  0  0  0  0  0  0
    6.4378   -0.6634   -1.3467 H   0  0  0  0  0  0  0  0  0  0  0  0
    5.5221    0.8802   -1.2520 H   0  0  0  0  0  0  0  0  0  0  0  0
  1  2  1  0
  2  3  2  0
  3  4  1  0
  4  5  2  0
  5  6  1  0
  6  7  1  0
  6  8  2  0
  8  9  1  0
  9 10  1  0
 10 11  2  0
 11 12  1  0
 12 13  2  0
 13 14  1  0
 14 15  2  0
 15 16  1  0
 12 17  1  0
 17 18  1  0
 18 19  2  0
 19 20  1  0
 20 21  1  0
 21 22  2  0
 22 23  1  0
 23 24  2  0
 24 25  1  0
 22 26  1  0
 26 27  1  0
 27 28  1  0
 28 29  1  0
 29 30  1  0
 30 31  1  0
  8  2  1  0
 15 10  1  0
 25 17  2  0
 31 26  1  0
 25 20  1  0
  1 32  1  0
  1 33  1  0
  1 34  1  0
  3 35  1  0
  4 36  1  0
  5 37  1  0
 11 38  1  0
 13 39  1  0
 16 40  1  0
 16 41  1  0
 18 42  1  0
 21 43  1  0
 23 44  1  0
 26 45  1  0
 27 46  1  0
 27 47  1  0
 28 48  1  0
 28 49  1  0
 29 50  1  0
 30 51  1  0
 30 52  1  0
 31 53  1  0
 31 54  1  0
M  END
$$$$
[H]Oc1c([H])c([H])c2c(c1[H])C(=O)/C(=C(\[H])c1c([H])c([H])c(OC([H])([H])C([H])([H])C([H])([H])C([H])([H])[H])c([H])c1[H])O2
     RDKit          3D

 41 43  0  0  0  0  0  0  0  0999 V2000
   -5.2529    1.7364   -0.9210 C   0  0  0  0  0  0  0  0  0  0  0  0
   -6.1057    0.5010   -1.1136 C   0  0  0  0  0  0  0  0  0  0  0  0
   -5.9201   -0.4888   -0.0097 C   0  0  0  0  0  0  0  0  0  0  0  0
   -4.5351   -1.0153    0.1618 C   0  0  0  0  0  0  0  0  0  0  0  0
   -3.5793   -0.0215    0.4123 O   0  0  0  0  0  0  0  0  0  0  0  0
   -2.2422   -0.3764    0.6205 C   0  0  0  0  0  0  0  0  0  0  0  0
   -1.8204   -1.6816    0.6086 C   0  0  0  0  0  0  0  0  0  0  0  0
   -0.5074   -2.0520    0.8101 C   0  0  0  0  0  0  0  0  0  0  0  0
    0.4502   -1.0576    1.0399 C   0  0  0  0  0  0  0  0  0  0  0  0
    1.8439   -1.4249    1.2766 C   0  0  0  0  0  0  0  0  0  0  0  0
    2.8478   -0.8299    0.6717 C   0  0  0  0  0  0  0  0  0  0  0  0
    2.7862    0.1906   -0.2481 O   0  0  0  0  0  0  0  0  0  0  0  0
    4.0363    0.5840   -0.6907 C   0  0  0  0  0  0  0  0  0  0  0  0
    4.4402    1.5404   -1.5876 C   0  0  0  0  0  0  0  0  0  0  0  0
    5.7901    1.7518   -1.8760 C   0  0  0  0  0  0  0  0  0  0  0  0
    6.7390    0.9820   -1.2446 C   0  0  0  0  0  0  0  0  0  0  0  0
    8.1201    1.1354   -1.4835 O   0  0  0  0  0  0  0  0  0  0  0  0
    6.3042    0.0291   -0.3488 C   0  0  0  0  0  0  0  0  0  0  0  0
    4.9941   -0.2184   -0.0317 C   0  0  0  0  0  0  0  0  0  0  0  0
    4.2853   -1.1312    0.8444 C   0  0  0  0  0  0  0  0  0  0  0  0
    4.7654   -1.9916    1.5918 O   0  0  0  0  0  0  0  0  0  0  0  0
    0.0530    0.2453    1.0558 C   0  0  0  0  0  0  0  0  0  0  0  0
   -1.2699    0.5907    0.8512 C   0  0  0  0  0  0  0  0  0  0  0  0
   -5.8028    2.6232   -1.3234 H   0  0  0  0  0  0  0  0  0  0  0  0
   -5.1787    1.8784    0.1763 H   0  0  0  0  0  0  0  0  0  0  0  0
   -4.2946    1.6819   -1.4520 H   0  0  0  0  0  0  0  0  0  0  0  0
   -7.1718    0.8700   -1.0452 H   0  0  0  0  0  0  0  0  0  0  0  0
   -6.0121    0.0963   -2.1264 H   0  0  0  0  0  0  0  0  0  0  0  0
   -6.5658   -1.3767   -0.2697 H   0  0  0  0  0  0  0  0  0  0  0  0
   -6.3560   -0.0973    0.9300 H   0  0  0  0  0  0  0  0  0  0  0  0
   -4.5567   -1.7467    0.9964 H   0  0  0  0  0  0  0  0  0  0  0  0
   -4.2104   -1.6119   -0.7318 H   0  0  0  0  0  0  0  0  0  0  0  0
   -2.5248   -2.5103    0.4328 H   0  0  0  0  0  0  0  0  0  0  0  0
   -0.1860   -3.0835    0.8031 H   0  0  0  0  0  0  0  0  0  0  0  0
    2.0324   -2.2198    1.9778 H   0  0  0  0  0  0  0  0  0  0  0  0
    3.6842    2.1353   -2.0753 H   0  0  0  0  0  0  0  0  0  0  0  0
    6.1134    2.4958   -2.5806 H   0  0  0  0  0  0  0  0  0  0  0  0
    8.6070    1.7802   -0.9008 H   0  0  0  0  0  0  0  0  0  0  0  0
    7.0679   -0.5771    0.1519 H   0  0  0  0  0  0  0  0  0  0  0  0
    0.7565    1.0575    1.2288 H   0  0  0  0  0  0  0  0  0  0  0  0
   -1.6246    1.6068    0.8547 H   0  0  0  0  0  0  0  0  0  0  0  0
  1  2  1  0
  2  3  1  0
  3  4  1  0
  4  5  1  0
  5  6  1  0
  6  7  2  0
  7  8  1  0
  8  9  2  0
  9 10  1  0
 10 11  2  0
 11 12  1  0
 12 13  1  0
 13 14  2  0
 14 15  1  0
 15 16  2  0
 16 17  1  0
 16 18  1  0
 18 19  2  0
 19 20  1  0
 20 21  2  0
  9 22  1  0
 22 23  2  0
 23  6  1  0
 20 11  1  0
 19 13  1  0
  1 24  1  0
  1 25  1  0
  1 26  1  0
  2 27  1  0
  2 28  1  0
  3 29  1  0
  3 30  1  0
  4 31  1  0
  4 32  1  0
  7 33  1  0
  8 34  1  0
 10 35  1  0
 14 36  1  0
 15 37  1  0
 17 38  1  0
 18 39  1  0
 22 40  1  0
 23 41  1  0
M  END
$$$$
[H]OC(=O)[C@@]1([H])N(C([H])(c2c([H])c([H])c(OC(=O)c3nc4c([H])c(C(=O)OC([H])([H])[H])c([H])c([H])c4o3)c([H])c2[H])C(F)(F)F)C(=O)C([H])([H])C1([H])[H]
     RDKit          3D

 53 56  0  0  0  0  0  0  0  0999 V2000
   10.9649    0.1345    0.9734 C   0  0  0  0  0  0  0  0  0  0  0  0
    9.5766    0.0013    0.7295 O   0  0  0  0  0  0  0  0  0  0  0  0
    9.0525   -0.7026   -0.3280 C   0  0  0  0  0  0  0  0  0  0  0  0
    9.8221   -1.2698   -1.1396 O   0  0  0  0  0  0  0  0  0  0  0  0
    7.6071   -0.8227   -0.5545 C   0  0  0  0  0  0  0  0  0  0  0  0
    7.1222   -1.5369   -1.6258 C   0  0  0  0  0  0  0  0  0  0  0  0
    5.7767   -1.6735   -1.8733 C   0  0  0  0  0  0  0  0  0  0  0  0
    4.8654   -1.0677   -1.0095 C   0  0  0  0  0  0  0  0  0  0  0  0
    3.5659   -1.0162   -0.9776 O   0  0  0  0  0  0  0  0  0  0  0  0
    3.1382   -0.3039    0.0599 C   0  0  0  0  0  0  0  0  0  0  0  0
    4.2455    0.1047    0.7010 N   0  0  0  0  0  0  0  0  0  0  0  0
    5.3490   -0.3569    0.0568 C   0  0  0  0  0  0  0  0  0  0  0  0
    6.7016   -0.2373    0.2794 C   0  0  0  0  0  0  0  0  0  0  0  0
    1.7671   -0.0198    0.4329 C   0  0  0  0  0  0  0  0  0  0  0  0
    1.5342    0.6699    1.4437 O   0  0  0  0  0  0  0  0  0  0  0  0
    0.7393   -0.5170   -0.3365 O   0  0  0  0  0  0  0  0  0  0  0  0
   -0.6142   -0.2788   -0.0306 C   0  0  0  0  0  0  0  0  0  0  0  0
   -1.2785    0.8123   -0.5320 C   0  0  0  0  0  0  0  0  0  0  0  0
   -2.6277    1.0444   -0.2235 C   0  0  0  0  0  0  0  0  0  0  0  0
   -3.3373    0.1997    0.5854 C   0  0  0  0  0  0  0  0  0  0  0  0
   -2.6172   -0.9013    1.0743 C   0  0  0  0  0  0  0  0  0  0  0  0
   -1.3097   -1.1428    0.7864 C   0  0  0  0  0  0  0  0  0  0  0  0
   -4.7739    0.3846    0.9656 C   0  0  0  0  0  0  0  0  0  0  0  0
   -5.6421    0.7809   -0.0861 N   0  0  0  0  0  0  0  0  0  0  0  0
   -6.6352    0.1000   -0.8759 C   0  0  1  0  0  0  0  0  0  0  0  0
   -6.2220    0.5447   -2.2913 C   0  0  0  0  0  0  0  0  0  0  0  0
   -5.9776    2.0148   -2.0992 C   0  0  0  0  0  0  0  0  0  0  0  0
   -5.6885    2.1315   -0.6496 C   0  0  0  0  0  0  0  0  0  0  0  0
   -5.5166    3.1884   -0.0191 O   0  0  0  0  0  0  0  0  0  0  0  0
   -6.7860   -1.3201   -0.7983 C   0  0  0  0  0  0  0  0  0  0  0  0
   -7.8974   -1.8797   -1.4677 O   0  0  0  0  0  0  0  0  0  0  0  0
   -6.0663   -2.1202   -0.2191 O   0  0  0  0  0  0  0  0  0  0  0  0
   -4.9272    1.0839    2.2759 C   0  0  0  0  0  0  0  0  0  0  0  0
   -4.2886    0.2602    3.2269 F   0  0  0  0  0  0  0  0  0  0  0  0
   -6.2347    1.1516    2.6382 F   0  0  0  0  0  0  0  0  0  0  0  0
   -4.2407    2.2798    2.3709 F   0  0  0  0  0  0  0  0  0  0  0  0
   11.3343    0.8946    0.2265 H   0  0  0  0  0  0  0  0  0  0  0  0
   11.1152    0.5277    1.9892 H   0  0  0  0  0  0  0  0  0  0  0  0
   11.5060   -0.8241    0.8143 H   0  0  0  0  0  0  0  0  0  0  0  0
    7.8560   -2.0001   -2.2850 H   0  0  0  0  0  0  0  0  0  0  0  0
    5.4285   -2.2427   -2.7258 H   0  0  0  0  0  0  0  0  0  0  0  0
    7.0676    0.3325    1.1334 H   0  0  0  0  0  0  0  0  0  0  0  0
   -0.7323    1.4872   -1.1712 H   0  0  0  0  0  0  0  0  0  0  0  0
   -3.0841    1.9095   -0.6454 H   0  0  0  0  0  0  0  0  0  0  0  0
   -3.1630   -1.5923    1.7250 H   0  0  0  0  0  0  0  0  0  0  0  0
   -0.7693   -2.0010    1.1747 H   0  0  0  0  0  0  0  0  0  0  0  0
   -5.0838   -0.6941    1.1977 H   0  0  0  0  0  0  0  0  0  0  0  0
   -7.6292    0.5704   -0.6521 H   0  0  0  0  0  0  0  0  0  0  0  0
   -5.2685    0.0348   -2.5172 H   0  0  0  0  0  0  0  0  0  0  0  0
   -7.0213    0.3623   -3.0148 H   0  0  0  0  0  0  0  0  0  0  0  0
   -6.8541    2.6267   -2.4028 H   0  0  0  0  0  0  0  0  0  0  0  0
   -5.0549    2.3529   -2.6495 H   0  0  0  0  0  0  0  0  0  0  0  0
   -8.7941   -1.4639   -1.1899 H   0  0  0  0  0  0  0  0  0  0  0  0
  1  2  1  0
  2  3  1  0
  3  4  2  0
  3  5  1  0
  5  6  2  0
  6  7  1  0
  7  8  2  0
  8  9  1  0
  9 10  1  0
 10 11  2  0
 11 12  1  0
 12 13  2  0
 10 14  1  0
 14 15  2  0
 14 16  1  0
 16 17  1  0
 17 18  2  0
 18 19  1  0
 19 20  2  0
 20 21  1  0
 21 22  2  0
 20 23  1  0
 23 24  1  0
 24 25  1  0
 25 26  1  0
 26 27  1  0
 27 28  1  0
 28 29  2  0
 25 30  1  0
 30 31  1  0
 30 32  2  0
 23 33  1  0
 33 34  1  0
 33 35  1  0
 33 36  1  0
 13  5  1  0
 22 17  1  0
 28 24  1  0
 12  8  1  0
  1 37  1  0
  1 38  1  0
  1 39  1  0
  6 40  1  0
  7 41  1  0
 13 42  1  0
 18 43  1  0
 19 44  1  0
 21 45  1  0
 22 46  1  0
 23 47  1  0
 25 48  1  1
 26 49  1  0
 26 50  1  0
 27 51  1  0
 27 52  1  0
 31 53  1  0
M  END
$$$$
[H]OC(=O)C([H])([H])C([H])([H])[C@@]([H])(C(=O)N([H])[C@]([H])(C(=O)N([H])[C@]([H])(C(=O)N([H])C([H])([H])C(=O)N([H])[H])C([H])(C([H])([H])[H])C([H])([H])[H])C([H])(C([H])([H])[H])C([H])([H])[H])N([H])C(=O)[C@@]([H])(N([H])C(=O)[C@]([H])(N([H])C(=O)[C@@]([H])(N([H])[H])C([H])([H])c1c([H])c([H])c(O[H])c([H])c1[H])C([H])([H])[H])C([H])([H])c1c([H])c([H])c([H])c([H])c1[H]
     RDKit          3D

110111  0  0  0  0  0  0  0  0999 V2000
   -9.8957    1.5719   -1.5778 C   0  0  0  0  0  0  0  0  0  0  0  0
   -9.0122    2.1298   -0.5045 C   0  0  0  0  0  0  0  0  0  0  0  0
   -8.4313    3.4291   -0.9730 C   0  0  0  0  0  0  0  0  0  0  0  0
   -7.9896    1.1665   -0.0118 C   0  0  2  0  0  0  0  0  0  0  0  0
   -7.1005    0.6972   -1.0613 N   0  0  0  0  0  0  0  0  0  0  0  0
   -5.7443    0.9950   -1.0427 C   0  0  0  0  0  0  0  0  0  0  0  0
   -5.3264    1.6814   -0.0263 O   0  0  0  0  0  0  0  0  0  0  0  0
   -4.6726    0.6688   -1.9931 C   0  0  1  0  0  0  0  0  0  0  0  0
   -3.4087    0.5499   -1.4768 N   0  0  0  0  0  0  0  0  0  0  0  0
   -2.1487    0.4375   -0.9591 C   0  0  0  0  0  0  0  0  0  0  0  0
   -1.5450    1.3108   -0.1883 O   0  0  0  0  0  0  0  0  0  0  0  0
   -1.2713   -0.7625   -1.2312 C   0  0  2  0  0  0  0  0  0  0  0  0
   -1.9129   -2.0529   -1.4067 C   0  0  0  0  0  0  0  0  0  0  0  0
   -2.7402   -2.5958   -0.2762 C   0  0  0  0  0  0  0  0  0  0  0  0
   -3.3064   -3.9260   -0.6339 C   0  0  0  0  0  0  0  0  0  0  0  0
   -4.0592   -4.6887    0.2194 O   0  0  0  0  0  0  0  0  0  0  0  0
   -3.0904   -4.4126   -1.7890 O   0  0  0  0  0  0  0  0  0  0  0  0
   -0.1457   -0.7784   -0.3029 N   0  0  0  0  0  0  0  0  0  0  0  0
    1.1494   -0.3755   -0.6452 C   0  0  0  0  0  0  0  0  0  0  0  0
    1.3998    0.0141   -1.8012 O   0  0  0  0  0  0  0  0  0  0  0  0
    2.2669   -0.4067    0.3723 C   0  0  2  0  0  0  0  0  0  0  0  0
    1.7951    0.3315    1.5972 C   0  0  0  0  0  0  0  0  0  0  0  0
    2.6880    0.3812    2.7499 C   0  0  0  0  0  0  0  0  0  0  0  0
    3.3066    1.5335    3.2471 C   0  0  0  0  0  0  0  0  0  0  0  0
    4.1626    1.4544    4.3313 C   0  0  0  0  0  0  0  0  0  0  0  0
    4.4605    0.2557    4.9815 C   0  0  0  0  0  0  0  0  0  0  0  0
    3.8340   -0.8789    4.4695 C   0  0  0  0  0  0  0  0  0  0  0  0
    2.9846   -0.8238    3.4042 C   0  0  0  0  0  0  0  0  0  0  0  0
    3.4660   -0.0808   -0.2925 N   0  0  0  0  0  0  0  0  0  0  0  0
    4.8269   -0.0625   -0.0055 C   0  0  0  0  0  0  0  0  0  0  0  0
    5.3785   -0.3195    1.0471 O   0  0  0  0  0  0  0  0  0  0  0  0
    5.7522    0.3197   -1.1609 C   0  0  1  0  0  0  0  0  0  0  0  0
    5.2579    1.4511   -1.9580 C   0  0  0  0  0  0  0  0  0  0  0  0
    7.1044    0.4369   -0.7325 N   0  0  0  0  0  0  0  0  0  0  0  0
    7.8184   -0.7807   -0.3898 C   0  0  0  0  0  0  0  0  0  0  0  0
    7.2473   -1.9066   -0.4505 O   0  0  0  0  0  0  0  0  0  0  0  0
    9.2305   -0.6856    0.0284 C   0  0  1  0  0  0  0  0  0  0  0  0
    9.9984   -1.8297   -0.3586 N   0  0  0  0  0  0  0  0  0  0  0  0
    9.8591    0.6010   -0.4089 C   0  0  0  0  0  0  0  0  0  0  0  0
   11.2980    0.6085    0.0216 C   0  0  0  0  0  0  0  0  0  0  0  0
   12.2947    0.1855   -0.8110 C   0  0  0  0  0  0  0  0  0  0  0  0
   13.6169    0.1820   -0.3731 C   0  0  0  0  0  0  0  0  0  0  0  0
   13.9227    0.6040    0.9080 C   0  0  0  0  0  0  0  0  0  0  0  0
   15.2435    0.5877    1.3196 O   0  0  0  0  0  0  0  0  0  0  0  0
   12.9138    1.0274    1.7506 C   0  0  0  0  0  0  0  0  0  0  0  0
   11.5930    1.0262    1.2892 C   0  0  0  0  0  0  0  0  0  0  0  0
   -5.0529   -0.2024   -3.1458 C   0  0  0  0  0  0  0  0  0  0  0  0
   -6.0955    0.4829   -4.0233 C   0  0  0  0  0  0  0  0  0  0  0  0
   -5.6113   -1.5371   -2.7054 C   0  0  0  0  0  0  0  0  0  0  0  0
   -8.6011    0.1095    0.7865 C   0  0  0  0  0  0  0  0  0  0  0  0
   -8.4846   -1.0986    0.5157 O   0  0  0  0  0  0  0  0  0  0  0  0
   -9.3786    0.4396    1.9617 N   0  0  0  0  0  0  0  0  0  0  0  0
   -9.9904   -0.5384    2.8033 C   0  0  0  0  0  0  0  0  0  0  0  0
  -11.0154   -1.3794    2.1207 C   0  0  0  0  0  0  0  0  0  0  0  0
  -11.6867   -2.3840    2.8455 N   0  0  0  0  0  0  0  0  0  0  0  0
  -11.2853   -1.2020    0.9218 O   0  0  0  0  0  0  0  0  0  0  0  0
  -10.8236    1.0762   -1.1693 H   0  0  0  0  0  0  0  0  0  0  0  0
  -10.2551    2.4508   -2.1856 H   0  0  0  0  0  0  0  0  0  0  0  0
   -9.3326    0.8802   -2.2243 H   0  0  0  0  0  0  0  0  0  0  0  0
   -9.6893    2.3986    0.3575 H   0  0  0  0  0  0  0  0  0  0  0  0
   -9.0998    3.8074   -1.8103 H   0  0  0  0  0  0  0  0  0  0  0  0
   -8.4305    4.2094   -0.2153 H   0  0  0  0  0  0  0  0  0  0  0  0
   -7.4235    3.3077   -1.4641 H   0  0  0  0  0  0  0  0  0  0  0  0
   -7.3296    1.7455    0.7168 H   0  0  0  0  0  0  0  0  0  0  0  0
   -7.5120    0.1240   -1.8167 H   0  0  0  0  0  0  0  0  0  0  0  0
   -4.6394    1.7392   -2.5855 H   0  0  0  0  0  0  0  0  0  0  0  0
   -3.5257    1.7716   -0.8800 H   0  0  0  0  0  0  0  0  0  0  0  0
   -0.7827   -0.4502   -2.2236 H   0  0  0  0  0  0  0  0  0  0  0  0
   -2.5861   -2.0647   -2.3174 H   0  0  0  0  0  0  0  0  0  0  0  0
   -1.1281   -2.8095   -1.7151 H   0  0  0  0  0  0  0  0  0  0  0  0
   -2.0429   -2.8034    0.5817 H   0  0  0  0  0  0  0  0  0  0  0  0
   -3.5013   -1.9247    0.1117 H   0  0  0  0  0  0  0  0  0  0  0  0
   -4.2453   -4.4575    1.1780 H   0  0  0  0  0  0  0  0  0  0  0  0
   -0.3206   -1.1440    0.6685 H   0  0  0  0  0  0  0  0  0  0  0  0
    2.3425   -1.4880    0.7795 H   0  0  0  0  0  0  0  0  0  0  0  0
    1.4760    1.3850    1.3643 H   0  0  0  0  0  0  0  0  0  0  0  0
    0.8596   -0.2048    1.9553 H   0  0  0  0  0  0  0  0  0  0  0  0
    3.0958    2.5049    2.8011 H   0  0  0  0  0  0  0  0  0  0  0  0
    4.6243    2.3717    4.7352 H   0  0  0  0  0  0  0  0  0  0  0  0
    5.1511    0.2292    5.8130 H   0  0  0  0  0  0  0  0  0  0  0  0
    4.0560   -1.8415    4.9351 H   0  0  0  0  0  0  0  0  0  0  0  0
    2.5198   -1.7138    3.0130 H   0  0  0  0  0  0  0  0  0  0  0  0
    3.2274    0.2097   -1.3545 H   0  0  0  0  0  0  0  0  0  0  0  0
    5.7374   -0.6290   -1.8176 H   0  0  0  0  0  0  0  0  0  0  0  0
    5.7107    1.3435   -2.9839 H   0  0  0  0  0  0  0  0  0  0  0  0
    4.1797    1.4532   -2.1271 H   0  0  0  0  0  0  0  0  0  0  0  0
    5.6446    2.4412   -1.6173 H   0  0  0  0  0  0  0  0  0  0  0  0
    7.6057    1.3119   -0.6898 H   0  0  0  0  0  0  0  0  0  0  0  0
    9.1967   -0.6238    1.1815 H   0  0  0  0  0  0  0  0  0  0  0  0
   10.0560   -1.8827   -1.4199 H   0  0  0  0  0  0  0  0  0  0  0  0
    9.5221   -2.6886    0.0118 H   0  0  0  0  0  0  0  0  0  0  0  0
    9.3435    1.4101    0.2030 H   0  0  0  0  0  0  0  0  0  0  0  0
    9.7385    0.8132   -1.4730 H   0  0  0  0  0  0  0  0  0  0  0  0
   12.0327   -0.1355   -1.8153 H   0  0  0  0  0  0  0  0  0  0  0  0
   14.4156   -0.1368   -1.0141 H   0  0  0  0  0  0  0  0  0  0  0  0
   15.6487   -0.2531    1.7842 H   0  0  0  0  0  0  0  0  0  0  0  0
   13.1710    1.3346    2.7617 H   0  0  0  0  0  0  0  0  0  0  0  0
   10.8417    1.3650    1.9837 H   0  0  0  0  0  0  0  0  0  0  0  0
   -4.1620   -0.3964   -3.7514 H   0  0  0  0  0  0  0  0  0  0  0  0
   -6.4259    1.3909   -3.5105 H   0  0  0  0  0  0  0  0  0  0  0  0
   -5.6268    0.7134   -5.0274 H   0  0  0  0  0  0  0  0  0  0  0  0
   -6.9406   -0.1940   -4.1285 H   0  0  0  0  0  0  0  0  0  0  0  0
   -5.0297   -2.3382   -3.2360 H   0  0  0  0  0  0  0  0  0  0  0  0
   -6.6571   -1.7145   -3.0445 H   0  0  0  0  0  0  0  0  0  0  0  0
   -5.4516   -1.7228   -1.6341 H   0  0  0  0  0  0  0  0  0  0  0  0
   -9.4941    1.4430    2.1628 H   0  0  0  0  0  0  0  0  0  0  0  0
  -10.5327   -0.0748    3.6557 H   0  0  0  0  0  0  0  0  0  0  0  0
   -9.1916   -1.1842    3.2529 H   0  0  0  0  0  0  0  0  0  0  0  0
  -11.3949   -2.6412    3.8123 H   0  0  0  0  0  0  0  0  0  0  0  0
  -12.4889   -2.9058    2.4566 H   0  0  0  0  0  0  0  0  0  0  0  0
  1  2  1  0
  2  3  1  0
  2  4  1  0
  4  5  1  0
  5  6  1  0
  6  7  2  0
  6  8  1  0
  8  9  1  0
  9 10  1  0
 10 11  2  0
 10 12  1  0
 12 13  1  0
 13 14  1  0
 14 15  1  0
 15 16  1  0
 15 17  2  0
 12 18  1  0
 18 19  1  0
 19 20  2  0
 19 21  1  0
 21 22  1  0
 22 23  1  0
 23 24  2  0
 24 25  1  0
 25 26  2  0
 26 27  1  0
 27 28  2  0
 21 29  1  0
 29 30  1  0
 30 31  2  0
 30 32  1  0
 32 33  1  0
 32 34  1  0
 34 35  1  0
 35 36  2  0
 35 37  1  0
 37 38  1  0
 37 39  1  0
 39 40  1  0
 40 41  2  0
 41 42  1  0
 42 43  2  0
 43 44  1  0
 43 45  1  0
 45 46  2  0
  8 47  1  0
 47 48  1  0
 47 49  1  0
  4 50  1  0
 50 51  2  0
 50 52  1  0
 52 53  1  0
 53 54  1  0
 54 55  1  0
 54 56  2  0
 28 23  1  0
 46 40  1  0
  1 57  1  0
  1 58  1  0
  1 59  1  0
  2 60  1  0
  3 61  1  0
  3 62  1  0
  3 63  1  0
  4 64  1  1
  5 65  1  0
  8 66  1  6
  9 67  1  0
 12 68  1  6
 13 69  1  0
 13 70  1  0
 14 71  1  0
 14 72  1  0
 16 73  1  0
 18 74  1  0
 21 75  1  1
 22 76  1  0
 22 77  1  0
 24 78  1  0
 25 79  1  0
 26 80  1  0
 27 81  1  0
 28 82  1  0
 29 83  1  0
 32 84  1  6
 33 85  1  0
 33 86  1  0
 33 87  1  0
 34 88  1  0
 37 89  1  1
 38 90  1  0
 38 91  1  0
 39 92  1  0
 39 93  1  0
 41 94  1  0
 42 95  1  0
 44 96  1  0
 45 97  1  0
 46 98  1  0
 47 99  1  0
 48100  1  0
 48101  1  0
 48102  1  0
 49103  1  0
 49104  1  0
 49105  1  0
 52106  1  0
 53107  1  0
 53108  1  0
 55109  1  0
 55110  1  0
M  END
$$$$
[H]c1c([H])c([H])c2c(c1[H])C(=O)N(C([H])([H])c1nc3c([H])c([H])c([H])c([H])c3n1[H])S2(=O)=O
     RDKit          3D

 33 36  0  0  0  0  0  0  0  0999 V2000
   -1.5532   -1.5072   -1.9979 O   0  0  0  0  0  0  0  0  0  0  0  0
   -1.8245   -0.9783   -0.8604 C   0  0  0  0  0  0  0  0  0  0  0  0
   -1.0348   -1.3063    0.2581 N   0  0  0  0  0  0  0  0  0  0  0  0
    0.1073   -2.1965    0.3558 C   0  0  0  0  0  0  0  0  0  0  0  0
    1.3212   -1.4188    0.0973 C   0  0  0  0  0  0  0  0  0  0  0  0
    1.9260   -1.1953   -1.0805 N   0  0  0  0  0  0  0  0  0  0  0  0
    3.0289   -0.4198   -0.8738 C   0  0  0  0  0  0  0  0  0  0  0  0
    4.0060    0.1129   -1.6791 C   0  0  0  0  0  0  0  0  0  0  0  0
    5.0292    0.8838   -1.1583 C   0  0  0  0  0  0  0  0  0  0  0  0
    5.0733    1.1256    0.1988 C   0  0  0  0  0  0  0  0  0  0  0  0
    4.0989    0.5952    1.0076 C   0  0  0  0  0  0  0  0  0  0  0  0
    3.0985   -0.1621    0.4752 C   0  0  0  0  0  0  0  0  0  0  0  0
    2.0467   -0.7836    1.0338 N   0  0  0  0  0  0  0  0  0  0  0  0
   -1.7102   -0.4053    1.5697 S   0  0  0  0  0  0  0  0  0  0  0  0
   -2.2269   -1.2845    2.6576 O   0  0  0  0  0  0  0  0  0  0  0  0
   -0.7254    0.6099    2.0855 O   0  0  0  0  0  0  0  0  0  0  0  0
   -2.9891    0.3751    0.6700 C   0  0  0  0  0  0  0  0  0  0  0  0
   -3.9582    1.2590    1.0575 C   0  0  0  0  0  0  0  0  0  0  0  0
   -4.8819    1.7561    0.1638 C   0  0  0  0  0  0  0  0  0  0  0  0
   -4.8019    1.3344   -1.1434 C   0  0  0  0  0  0  0  0  0  0  0  0
   -3.8234    0.4461   -1.5193 C   0  0  0  0  0  0  0  0  0  0  0  0
   -2.8894   -0.0549   -0.6096 C   0  0  0  0  0  0  0  0  0  0  0  0
   -0.0038   -2.9867   -0.4374 H   0  0  0  0  0  0  0  0  0  0  0  0
    0.1220   -2.7201    1.3464 H   0  0  0  0  0  0  0  0  0  0  0  0
    3.9481   -0.0909   -2.7336 H   0  0  0  0  0  0  0  0  0  0  0  0
    5.7954    1.3004   -1.7962 H   0  0  0  0  0  0  0  0  0  0  0  0
    5.8584    1.7234    0.6394 H   0  0  0  0  0  0  0  0  0  0  0  0
    4.1521    0.7982    2.0772 H   0  0  0  0  0  0  0  0  0  0  0  0
    1.8526   -0.7518    2.0744 H   0  0  0  0  0  0  0  0  0  0  0  0
   -4.0390    1.6083    2.0975 H   0  0  0  0  0  0  0  0  0  0  0  0
   -5.6613    2.4661    0.4720 H   0  0  0  0  0  0  0  0  0  0  0  0
   -5.5244    1.7163   -1.8676 H   0  0  0  0  0  0  0  0  0  0  0  0
   -3.8175    0.1510   -2.5807 H   0  0  0  0  0  0  0  0  0  0  0  0
  1  2  2  0
  2  3  1  0
  3  4  1  0
  4  5  1  0
  5  6  2  0
  6  7  1  0
  7  8  2  0
  8  9  1  0
  9 10  2  0
 10 11  1  0
 11 12  2  0
 12 13  1  0
  3 14  1  0
 14 15  2  0
 14 16  2  0
 14 17  1  0
 17 18  2  0
 18 19  1  0
 19 20  2  0
 20 21  1  0
 21 22  2  0
 22  2  1  0
 13  5  1  0
 22 17  1  0
 12  7  1  0
  4 23  1  0
  4 24  1  0
  8 25  1  0
  9 26  1  0
 10 27  1  0
 11 28  1  0
 13 29  1  0
 18 30  1  0
 19 31  1  0
 20 32  1  0
 21 33  1  0
M  END
$$$$
[H]c1nn(-c2c([H])c([H])c([H])c([H])c2[H])c(-c2c([H])c([H])c([H])c(N3C([H])([H])C([H])([H])N(c4c([H])c([H])c(N([H])S(=O)(=O)c5c([H])c([H])c(N([H])[C@@]([H])(C([H])([H])Sc6c([H])c([H])c([H])c([H])c6[H])C([H])([H])C([H])([H])N(C([H])([H])[H])C([H])([H])[H])c([N+](=O)[O-])c5[H])c([H])c4[H])C([H])([H])C3([H])[H])c2[H])c1C(F)(F)F
     RDKit          3D

106112  0  0  0  0  0  0  0  0999 V2000
   10.0252   -4.3823   -0.9902 C   0  0  0  0  0  0  0  0  0  0  0  0
   10.0567   -3.2984   -0.0536 N   0  0  0  0  0  0  0  0  0  0  0  0
   11.3281   -3.0969    0.5783 C   0  0  0  0  0  0  0  0  0  0  0  0
    9.4723   -2.0593   -0.5607 C   0  0  0  0  0  0  0  0  0  0  0  0
    8.0201   -2.1767   -0.7843 C   0  0  0  0  0  0  0  0  0  0  0  0
    7.3714   -0.8672   -1.2962 C   0  0  2  0  0  0  0  0  0  0  0  0
    7.5418    0.1662   -0.2699 C   0  0  0  0  0  0  0  0  0  0  0  0
    6.7131   -0.3389    1.3012 S   0  0  0  0  0  0  0  0  0  0  0  0
    7.0910    1.0204    2.4330 C   0  0  0  0  0  0  0  0  0  0  0  0
    8.1633    0.8929    3.2983 C   0  0  0  0  0  0  0  0  0  0  0  0
    8.4848    1.9832    4.0747 C   0  0  0  0  0  0  0  0  0  0  0  0
    7.7686    3.1782    4.0108 C   0  0  0  0  0  0  0  0  0  0  0  0
    6.7056    3.2859    3.1492 C   0  0  0  0  0  0  0  0  0  0  0  0
    6.3659    2.1808    2.3480 C   0  0  0  0  0  0  0  0  0  0  0  0
    6.0276   -1.1540   -1.6930 N   0  0  0  0  0  0  0  0  0  0  0  0
    5.1100   -0.3134   -2.3682 C   0  0  0  0  0  0  0  0  0  0  0  0
    5.3575    0.9894   -2.6534 C   0  0  0  0  0  0  0  0  0  0  0  0
    4.4386    1.7943   -3.2822 C   0  0  0  0  0  0  0  0  0  0  0  0
    3.1928    1.2978   -3.6635 C   0  0  0  0  0  0  0  0  0  0  0  0
    2.9511   -0.0043   -3.3817 C   0  0  0  0  0  0  0  0  0  0  0  0
    3.8655   -0.8571   -2.7376 C   0  0  0  0  0  0  0  0  0  0  0  0
    3.4717   -2.2007   -2.5560 N   0  0  0  0  0  0  0  0  0  0  0  0
    2.6762   -2.7556   -3.5596 O   0  0  0  0  0  0  0  0  0  0  0  0
    3.7147   -2.9138   -1.6087 O   0  0  0  0  0  0  0  0  0  0  0  0
    2.0281    2.3385   -4.4605 S   0  0  0  0  0  0  0  0  0  0  0  0
    2.8567    3.3127   -5.2937 O   0  0  0  0  0  0  0  0  0  0  0  0
    1.2979    1.4886   -5.4939 O   0  0  0  0  0  0  0  0  0  0  0  0
    0.9864    3.1890   -3.4341 N   0  0  0  0  0  0  0  0  0  0  0  0
    0.0485    2.7252   -2.5363 C   0  0  0  0  0  0  0  0  0  0  0  0
    0.2391    1.7655   -1.5784 C   0  0  0  0  0  0  0  0  0  0  0  0
   -0.7792    1.3711   -0.7026 C   0  0  0  0  0  0  0  0  0  0  0  0
   -2.0308    1.9324   -0.7609 C   0  0  0  0  0  0  0  0  0  0  0  0
   -2.2253    2.9000   -1.7239 C   0  0  0  0  0  0  0  0  0  0  0  0
   -1.2374    3.2941   -2.5872 C   0  0  0  0  0  0  0  0  0  0  0  0
   -3.0698    1.5639    0.1179 N   0  0  0  0  0  0  0  0  0  0  0  0
   -4.3609    2.1660    0.0707 C   0  0  0  0  0  0  0  0  0  0  0  0
   -5.4865    1.2184    0.4935 C   0  0  0  0  0  0  0  0  0  0  0  0
   -5.1120    0.4753    1.6759 N   0  0  0  0  0  0  0  0  0  0  0  0
   -3.8178    0.7136    2.2293 C   0  0  0  0  0  0  0  0  0  0  0  0
   -2.7780    0.5121    1.1220 C   0  0  0  0  0  0  0  0  0  0  0  0
   -6.0316   -0.4525    2.2247 C   0  0  0  0  0  0  0  0  0  0  0  0
   -5.8201   -1.0642    3.4278 C   0  0  0  0  0  0  0  0  0  0  0  0
   -6.7128   -1.9549    3.9243 C   0  0  0  0  0  0  0  0  0  0  0  0
   -7.8565   -2.2354    3.1858 C   0  0  0  0  0  0  0  0  0  0  0  0
   -8.1688   -1.6838    1.9758 C   0  0  0  0  0  0  0  0  0  0  0  0
   -7.2021   -0.7697    1.5141 C   0  0  0  0  0  0  0  0  0  0  0  0
   -9.2985   -2.0269    1.1194 C   0  0  0  0  0  0  0  0  0  0  0  0
   -9.9373   -3.2340    0.9806 C   0  0  0  0  0  0  0  0  0  0  0  0
  -11.0051   -3.0262    0.0606 C   0  0  0  0  0  0  0  0  0  0  0  0
  -10.9699   -1.7540   -0.2989 N   0  0  0  0  0  0  0  0  0  0  0  0
   -9.9344   -1.1356    0.3444 N   0  0  0  0  0  0  0  0  0  0  0  0
   -9.7696    0.2581    0.1840 C   0  0  0  0  0  0  0  0  0  0  0  0
   -9.5299    0.9217   -0.9967 C   0  0  0  0  0  0  0  0  0  0  0  0
   -9.4354    2.3043   -1.0862 C   0  0  0  0  0  0  0  0  0  0  0  0
   -9.5863    3.0717    0.0557 C   0  0  0  0  0  0  0  0  0  0  0  0
   -9.8262    2.4331    1.2512 C   0  0  0  0  0  0  0  0  0  0  0  0
   -9.9198    1.0634    1.3302 C   0  0  0  0  0  0  0  0  0  0  0  0
   -9.7215   -4.5416    1.6253 C   0  0  0  0  0  0  0  0  0  0  0  0
  -10.4906   -5.5251    0.9456 F   0  0  0  0  0  0  0  0  0  0  0  0
   -8.4265   -4.8944    1.5775 F   0  0  0  0  0  0  0  0  0  0  0  0
  -10.2022   -4.5830    2.9414 F   0  0  0  0  0  0  0  0  0  0  0  0
    9.9007   -4.0068   -2.0360 H   0  0  0  0  0  0  0  0  0  0  0  0
    9.2686   -5.1616   -0.7371 H   0  0  0  0  0  0  0  0  0  0  0  0
   11.0321   -4.8739   -0.9565 H   0  0  0  0  0  0  0  0  0  0  0  0
   11.7477   -4.1342    0.7511 H   0  0  0  0  0  0  0  0  0  0  0  0
   12.0224   -2.5571   -0.0603 H   0  0  0  0  0  0  0  0  0  0  0  0
   11.3044   -2.6001    1.5458 H   0  0  0  0  0  0  0  0  0  0  0  0
    9.7910   -1.2383    0.0769 H   0  0  0  0  0  0  0  0  0  0  0  0
    9.9743   -1.9355   -1.5680 H   0  0  0  0  0  0  0  0  0  0  0  0
    7.7901   -2.9331   -1.5692 H   0  0  0  0  0  0  0  0  0  0  0  0
    7.4309   -2.4717    0.1176 H   0  0  0  0  0  0  0  0  0  0  0  0
    7.9803   -0.5298   -2.1975 H   0  0  0  0  0  0  0  0  0  0  0  0
    8.6467    0.3286   -0.0867 H   0  0  0  0  0  0  0  0  0  0  0  0
    7.0986    1.1478   -0.5429 H   0  0  0  0  0  0  0  0  0  0  0  0
    8.7508   -0.0075    3.4015 H   0  0  0  0  0  0  0  0  0  0  0  0
    9.3324    1.8915    4.7491 H   0  0  0  0  0  0  0  0  0  0  0  0
    8.0473    4.0230    4.6274 H   0  0  0  0  0  0  0  0  0  0  0  0
    6.0939    4.1940    3.0366 H   0  0  0  0  0  0  0  0  0  0  0  0
    5.5206    2.2924    1.6841 H   0  0  0  0  0  0  0  0  0  0  0  0
    5.7212   -2.1418   -1.4181 H   0  0  0  0  0  0  0  0  0  0  0  0
    6.3428    1.4481   -2.4349 H   0  0  0  0  0  0  0  0  0  0  0  0
    4.6874    2.8301   -3.4819 H   0  0  0  0  0  0  0  0  0  0  0  0
    1.9737   -0.4319   -3.6810 H   0  0  0  0  0  0  0  0  0  0  0  0
    1.0546    4.2803   -3.4753 H   0  0  0  0  0  0  0  0  0  0  0  0
    1.2029    1.3047   -1.4602 H   0  0  0  0  0  0  0  0  0  0  0  0
   -0.5623    0.5979    0.0328 H   0  0  0  0  0  0  0  0  0  0  0  0
   -3.1946    3.3976   -1.8278 H   0  0  0  0  0  0  0  0  0  0  0  0
   -1.4052    4.0455   -3.3375 H   0  0  0  0  0  0  0  0  0  0  0  0
   -4.6120    2.4231   -0.9811 H   0  0  0  0  0  0  0  0  0  0  0  0
   -4.4063    3.1038    0.6488 H   0  0  0  0  0  0  0  0  0  0  0  0
   -5.6870    0.5132   -0.3139 H   0  0  0  0  0  0  0  0  0  0  0  0
   -6.3525    1.8750    0.7332 H   0  0  0  0  0  0  0  0  0  0  0  0
   -3.6913    1.8281    2.4700 H   0  0  0  0  0  0  0  0  0  0  0  0
   -3.5466    0.1704    3.1303 H   0  0  0  0  0  0  0  0  0  0  0  0
   -2.8651   -0.4681    0.6296 H   0  0  0  0  0  0  0  0  0  0  0  0
   -1.8096    0.7100    1.5913 H   0  0  0  0  0  0  0  0  0  0  0  0
   -4.9397   -0.8539    4.0405 H   0  0  0  0  0  0  0  0  0  0  0  0
   -6.5256   -2.4284    4.8873 H   0  0  0  0  0  0  0  0  0  0  0  0
   -8.5128   -2.9197    3.6709 H   0  0  0  0  0  0  0  0  0  0  0  0
   -7.3174   -0.3154    0.5588 H   0  0  0  0  0  0  0  0  0  0  0  0
  -11.6979   -3.7805   -0.2655 H   0  0  0  0  0  0  0  0  0  0  0  0
   -9.4155    0.3288   -1.8944 H   0  0  0  0  0  0  0  0  0  0  0  0
   -9.2452    2.7739   -2.0426 H   0  0  0  0  0  0  0  0  0  0  0  0
   -9.5088    4.1601   -0.0501 H   0  0  0  0  0  0  0  0  0  0  0  0
   -9.9412    3.0339    2.1482 H   0  0  0  0  0  0  0  0  0  0  0  0
  -10.1061    0.5797    2.2745 H   0  0  0  0  0  0  0  0  0  0  0  0
  1  2  1  0
  2  3  1  0
  2  4  1  0
  4  5  1  0
  5  6  1  0
  6  7  1  0
  7  8  1  0
  8  9  1  0
  9 10  2  0
 10 11  1  0
 11 12  2  0
 12 13  1  0
 13 14  2  0
  6 15  1  0
 15 16  1  0
 16 17  2  0
 17 18  1  0
 18 19  2  0
 19 20  1  0
 20 21  2  0
 21 22  1  0
 22 23  1  0
 22 24  2  0
 19 25  1  0
 25 26  2  0
 25 27  2  0
 25 28  1  0
 28 29  1  0
 29 30  2  0
 30 31  1  0
 31 32  2  0
 32 33  1  0
 33 34  2  0
 32 35  1  0
 35 36  1  0
 36 37  1  0
 37 38  1  0
 38 39  1  0
 39 40  1  0
 38 41  1  0
 41 42  2  0
 42 43  1  0
 43 44  2  0
 44 45  1  0
 45 46  2  0
 45 47  1  0
 47 48  2  0
 48 49  1  0
 49 50  2  0
 50 51  1  0
 51 52  1  0
 52 53  2  0
 53 54  1  0
 54 55  2  0
 55 56  1  0
 56 57  2  0
 48 58  1  0
 58 59  1  0
 58 60  1  0
 58 61  1  0
 14  9  1  0
 21 16  1  0
 34 29  1  0
 40 35  1  0
 46 41  1  0
 51 47  1  0
 57 52  1  0
  1 62  1  0
  1 63  1  0
  1 64  1  0
  3 65  1  0
  3 66  1  0
  3 67  1  0
  4 68  1  0
  4 69  1  0
  5 70  1  0
  5 71  1  0
  6 72  1  6
  7 73  1  0
  7 74  1  0
 10 75  1  0
 11 76  1  0
 12 77  1  0
 13 78  1  0
 14 79  1  0
 15 80  1  0
 17 81  1  0
 18 82  1  0
 20 83  1  0
 28 84  1  0
 30 85  1  0
 31 86  1  0
 33 87  1  0
 34 88  1  0
 36 89  1  0
 36 90  1  0
 37 91  1  0
 37 92  1  0
 39 93  1  0
 39 94  1  0
 40 95  1  0
 40 96  1  0
 42 97  1  0
 43 98  1  0
 44 99  1  0
 46100  1  0
 49101  1  0
 53102  1  0
 54103  1  0
 55104  1  0
 56105  1  0
 57106  1  0
M  CHG  2  22   1  23  -1
M  END
$$$$
[H]O[C@]1(C([H])([H])OC([H])([H])[H])C([H])([H])[C@@]2([H])O[C@]1(C([H])([H])[H])n1c3c([H])c([H])c([H])c([H])c3c3c4c(c5c6c([H])c([H])c([H])c([H])c6n2c5c31)C(=O)N([H])C4([H])[H]
     RDKit          3D

 57 64  0  0  0  0  0  0  0  0999 V2000
   -5.8410    0.7891    0.2519 C   0  0  0  0  0  0  0  0  0  0  0  0
   -4.7732    0.0668   -0.2780 O   0  0  0  0  0  0  0  0  0  0  0  0
   -3.6838    0.8809   -0.2979 C   0  0  0  0  0  0  0  0  0  0  0  0
   -2.4090    0.3075   -0.8336 C   0  0  1  0  0  0  0  0  0  0  0  0
   -2.5193   -0.1409   -2.1385 O   0  0  0  0  0  0  0  0  0  0  0  0
   -1.4359    1.5081   -0.7889 C   0  0  0  0  0  0  0  0  0  0  0  0
   -1.1782    1.5233    0.7333 C   0  0  1  0  0  0  0  0  0  0  0  0
   -1.5166    0.3084    1.2179 O   0  0  0  0  0  0  0  0  0  0  0  0
   -1.7700   -0.5949    0.1335 C   0  0  1  0  0  0  0  0  0  0  0  0
   -2.7020   -1.5980    0.7990 C   0  0  0  0  0  0  0  0  0  0  0  0
   -0.4893   -1.1628   -0.2227 N   0  0  0  0  0  0  0  0  0  0  0  0
   -0.2753   -2.4020   -0.7290 C   0  0  0  0  0  0  0  0  0  0  0  0
   -1.0890   -3.4180   -1.1196 C   0  0  0  0  0  0  0  0  0  0  0  0
   -0.6490   -4.6396   -1.6331 C   0  0  0  0  0  0  0  0  0  0  0  0
    0.7123   -4.8241   -1.7514 C   0  0  0  0  0  0  0  0  0  0  0  0
    1.5845   -3.8308   -1.3729 C   0  0  0  0  0  0  0  0  0  0  0  0
    1.0986   -2.6414   -0.8710 C   0  0  0  0  0  0  0  0  0  0  0  0
    1.7324   -1.5088   -0.4399 C   0  0  0  0  0  0  0  0  0  0  0  0
    3.0473   -1.1292   -0.3221 C   0  0  0  0  0  0  0  0  0  0  0  0
    4.2758   -1.8755   -0.6563 C   0  0  0  0  0  0  0  0  0  0  0  0
    5.3562   -1.0036   -0.3281 N   0  0  0  0  0  0  0  0  0  0  0  0
    4.8403    0.2427    0.1864 C   0  0  0  0  0  0  0  0  0  0  0  0
    5.6258    1.1353    0.5269 O   0  0  0  0  0  0  0  0  0  0  0  0
    3.4200    0.1365    0.1784 C   0  0  0  0  0  0  0  0  0  0  0  0
    2.4131    0.9935    0.5486 C   0  0  0  0  0  0  0  0  0  0  0  0
    2.4057    2.2697    1.0349 C   0  0  0  0  0  0  0  0  0  0  0  0
    3.3251    3.2180    1.3805 C   0  0  0  0  0  0  0  0  0  0  0  0
    2.9474    4.4704    1.8630 C   0  0  0  0  0  0  0  0  0  0  0  0
    1.6264    4.8034    2.0114 C   0  0  0  0  0  0  0  0  0  0  0  0
    0.6739    3.8657    1.6703 C   0  0  0  0  0  0  0  0  0  0  0  0
    1.0568    2.6263    1.1927 C   0  0  0  0  0  0  0  0  0  0  0  0
    0.2897    1.6184    0.8217 N   0  0  0  0  0  0  0  0  0  0  0  0
    1.0747    0.6000    0.4257 C   0  0  0  0  0  0  0  0  0  0  0  0
    0.7593   -0.6477   -0.0639 C   0  0  0  0  0  0  0  0  0  0  0  0
   -6.7309    0.1315    0.2707 H   0  0  0  0  0  0  0  0  0  0  0  0
   -6.0462    1.6181   -0.4585 H   0  0  0  0  0  0  0  0  0  0  0  0
   -5.6511    1.1893    1.2493 H   0  0  0  0  0  0  0  0  0  0  0  0
   -3.4538    1.3587    0.6781 H   0  0  0  0  0  0  0  0  0  0  0  0
   -3.9398    1.7516   -0.9733 H   0  0  0  0  0  0  0  0  0  0  0  0
   -3.3981    0.0397   -2.5077 H   0  0  0  0  0  0  0  0  0  0  0  0
   -1.9698    2.4221   -1.0449 H   0  0  0  0  0  0  0  0  0  0  0  0
   -0.5455    1.2840   -1.3692 H   0  0  0  0  0  0  0  0  0  0  0  0
   -1.6591    2.3744    1.2120 H   0  0  0  0  0  0  0  0  0  0  0  0
   -2.1140   -2.4771    1.1883 H   0  0  0  0  0  0  0  0  0  0  0  0
   -3.2101   -1.1933    1.7021 H   0  0  0  0  0  0  0  0  0  0  0  0
   -3.5284   -1.9125    0.1391 H   0  0  0  0  0  0  0  0  0  0  0  0
   -2.1368   -3.3059   -1.0563 H   0  0  0  0  0  0  0  0  0  0  0  0
   -1.3495   -5.4145   -1.9280 H   0  0  0  0  0  0  0  0  0  0  0  0
    1.0888   -5.7784   -2.1534 H   0  0  0  0  0  0  0  0  0  0  0  0
    2.6745   -3.9580   -1.4595 H   0  0  0  0  0  0  0  0  0  0  0  0
    4.3102   -2.7696   -0.0043 H   0  0  0  0  0  0  0  0  0  0  0  0
    4.3314   -2.1414   -1.7379 H   0  0  0  0  0  0  0  0  0  0  0  0
    6.3640   -1.2726   -0.4590 H   0  0  0  0  0  0  0  0  0  0  0  0
    4.3677    3.0361    1.2944 H   0  0  0  0  0  0  0  0  0  0  0  0
    3.7073    5.1889    2.1238 H   0  0  0  0  0  0  0  0  0  0  0  0
    1.3297    5.7737    2.3853 H   0  0  0  0  0  0  0  0  0  0  0  0
   -0.3741    4.1084    1.7798 H   0  0  0  0  0  0  0  0  0  0  0  0
  1  2  1  0
  2  3  1  0
  3  4  1  0
  4  5  1  6
  4  6  1  0
  6  7  1  0
  7  8  1  0
  8  9  1  0
  9 10  1  1
  9 11  1  0
 11 12  1  0
 12 13  2  0
 13 14  1  0
 14 15  2  0
 15 16  1  0
 16 17  2  0
 17 18  1  0
 18 19  2  0
 19 20  1  0
 20 21  1  0
 21 22  1  0
 22 23  2  0
 22 24  1  0
 24 25  2  0
 25 26  1  0
 26 27  2  0
 27 28  1  0
 28 29  2  0
 29 30  1  0
 30 31  2  0
 31 32  1  0
 32 33  1  0
 33 34  2  0
  9  4  1  0
 34 11  1  0
 32  7  1  0
 17 12  1  0
 34 18  1  0
 24 19  1  0
 33 25  1  0
 31 26  1  0
  1 35  1  0
  1 36  1  0
  1 37  1  0
  3 38  1  0
  3 39  1  0
  5 40  1  0
  6 41  1  0
  6 42  1  0
  7 43  1  1
 10 44  1  0
 10 45  1  0
 10 46  1  0
 13 47  1  0
 14 48  1  0
 15 49  1  0
 16 50  1  0
 20 51  1  0
 20 52  1  0
 21 53  1  0
 27 54  1  0
 28 55  1  0
 29 56  1  0
 30 57  1  0
M  END
$$$$
[H]C([H])=C([H])C(=O)N([H])c1c([H])c([H])c([H])c2nc([H])nc(N([H])c3c([H])c([H])c(OC([H])([H])c4c([H])c([H])c([H])c(F)c4[H])c(Cl)c3[H])c12
     RDKit          3D

 50 53  0  0  0  0  0  0  0  0999 V2000
    8.2802   -1.0509    1.6271 F   0  0  0  0  0  0  0  0  0  0  0  0
    7.6556    0.1077    1.2875 C   0  0  0  0  0  0  0  0  0  0  0  0
    8.3891    1.2550    1.2612 C   0  0  0  0  0  0  0  0  0  0  0  0
    7.7812    2.4359    0.9216 C   0  0  0  0  0  0  0  0  0  0  0  0
    6.4348    2.4304    0.6138 C   0  0  0  0  0  0  0  0  0  0  0  0
    5.7013    1.2663    0.6428 C   0  0  0  0  0  0  0  0  0  0  0  0
    4.2539    1.3265    0.3007 C   0  0  0  0  0  0  0  0  0  0  0  0
    3.6397    0.0692    0.3731 O   0  0  0  0  0  0  0  0  0  0  0  0
    2.2870   -0.0195    0.0779 C   0  0  0  0  0  0  0  0  0  0  0  0
    1.5431    1.0872   -0.2804 C   0  0  0  0  0  0  0  0  0  0  0  0
    0.2072    0.9735   -0.5679 C   0  0  0  0  0  0  0  0  0  0  0  0
   -0.4621   -0.2576   -0.5130 C   0  0  0  0  0  0  0  0  0  0  0  0
   -1.8739   -0.2752   -0.7975 N   0  0  0  0  0  0  0  0  0  0  0  0
   -2.4945   -1.4439   -1.2848 C   0  0  0  0  0  0  0  0  0  0  0  0
   -1.6793   -2.3417   -1.9474 N   0  0  0  0  0  0  0  0  0  0  0  0
   -2.1802   -3.3256   -2.6826 C   0  0  0  0  0  0  0  0  0  0  0  0
   -3.4983   -3.4952   -2.8173 N   0  0  0  0  0  0  0  0  0  0  0  0
   -4.3349   -2.6350   -2.1764 C   0  0  0  0  0  0  0  0  0  0  0  0
   -5.6940   -2.8028   -2.3038 C   0  0  0  0  0  0  0  0  0  0  0  0
   -6.5720   -1.9742   -1.6721 C   0  0  0  0  0  0  0  0  0  0  0  0
   -6.1113   -0.9541   -0.8892 C   0  0  0  0  0  0  0  0  0  0  0  0
   -4.7348   -0.7439   -0.7291 C   0  0  0  0  0  0  0  0  0  0  0  0
   -4.3081    0.1201    0.2938 N   0  0  0  0  0  0  0  0  0  0  0  0
   -4.9793    1.3095    0.6242 C   0  0  0  0  0  0  0  0  0  0  0  0
   -6.0023    1.6816    0.0072 O   0  0  0  0  0  0  0  0  0  0  0  0
   -4.5396    2.1998    1.7061 C   0  0  0  0  0  0  0  0  0  0  0  0
   -3.4953    1.9765    2.4559 C   0  0  0  0  0  0  0  0  0  0  0  0
   -3.8457   -1.5797   -1.3817 C   0  0  0  0  0  0  0  0  0  0  0  0
    0.2863   -1.3352   -0.1577 C   0  0  0  0  0  0  0  0  0  0  0  0
    1.6534   -1.2300    0.1379 C   0  0  0  0  0  0  0  0  0  0  0  0
    2.5515   -2.6741    0.5887 Cl  0  0  0  0  0  0  0  0  0  0  0  0
    6.3203    0.0970    0.9830 C   0  0  0  0  0  0  0  0  0  0  0  0
    9.4417    1.2575    1.5022 H   0  0  0  0  0  0  0  0  0  0  0  0
    8.3591    3.3447    0.9002 H   0  0  0  0  0  0  0  0  0  0  0  0
    5.9759    3.3725    0.3488 H   0  0  0  0  0  0  0  0  0  0  0  0
    4.1933    1.6858   -0.7491 H   0  0  0  0  0  0  0  0  0  0  0  0
    3.7656    2.0415    1.0115 H   0  0  0  0  0  0  0  0  0  0  0  0
    2.0424    2.0666   -0.3317 H   0  0  0  0  0  0  0  0  0  0  0  0
   -0.3705    1.8595   -0.8506 H   0  0  0  0  0  0  0  0  0  0  0  0
   -2.3576    0.6192   -0.7142 H   0  0  0  0  0  0  0  0  0  0  0  0
   -1.4978   -4.0220   -3.1962 H   0  0  0  0  0  0  0  0  0  0  0  0
   -6.0868   -3.6032   -2.9136 H   0  0  0  0  0  0  0  0  0  0  0  0
   -7.6663   -2.0976   -1.7703 H   0  0  0  0  0  0  0  0  0  0  0  0
   -6.8362   -0.3194   -0.3728 H   0  0  0  0  0  0  0  0  0  0  0  0
   -3.5041   -0.1413    0.9181 H   0  0  0  0  0  0  0  0  0  0  0  0
   -5.1170    3.1009    1.8969 H   0  0  0  0  0  0  0  0  0  0  0  0
   -3.2189    2.6650    3.2363 H   0  0  0  0  0  0  0  0  0  0  0  0
   -2.8922    1.1074    2.3118 H   0  0  0  0  0  0  0  0  0  0  0  0
   -0.1380   -2.3068   -0.0691 H   0  0  0  0  0  0  0  0  0  0  0  0
    5.7283   -0.8277    1.0040 H   0  0  0  0  0  0  0  0  0  0  0  0
  1  2  1  0
  2  3  2  0
  3  4  1  0
  4  5  2  0
  5  6  1  0
  6  7  1  0
  7  8  1  0
  8  9  1  0
  9 10  2  0
 10 11  1  0
 11 12  2  0
 12 13  1  0
 13 14  1  0
 14 15  2  0
 15 16  1  0
 16 17  2  0
 17 18  1  0
 18 19  2  0
 19 20  1  0
 20 21  2  0
 21 22  1  0
 22 23  1  0
 23 24  1  0
 24 25  2  0
 24 26  1  0
 26 27  2  3
 22 28  2  0
 12 29  1  0
 29 30  2  0
 30 31  1  0
  6 32  2  0
 32  2  1  0
 30  9  1  0
 28 14  1  0
 28 18  1  0
  3 33  1  0
  4 34  1  0
  5 35  1  0
  7 36  1  0
  7 37  1  0
 10 38  1  0
 11 39  1  0
 13 40  1  0
 16 41  1  0
 19 42  1  0
 20 43  1  0
 21 44  1  0
 23 45  1  0
 26 46  1  0
 27 47  1  0
 27 48  1  0
 29 49  1  0
 32 50  1  0
M  END
$$$$
[H]c1c([H])c(OC([H])([H])C([H])([H])C([H])([H])[H])c([H])c(N2C(N([H])[H])=NC(N([H])[H])=NC2(C([H])([H])[H])C([H])([H])[H])c1[H]
     RDKit          3D

 41 42  0  0  0  0  0  0  0  0999 V2000
    6.0245   -0.3828   -1.2017 C   0  0  0  0  0  0  0  0  0  0  0  0
    4.5106   -0.4228   -1.1107 C   0  0  0  0  0  0  0  0  0  0  0  0
    3.9089    0.9454   -1.2978 C   0  0  0  0  0  0  0  0  0  0  0  0
    2.5374    0.9005   -1.1959 O   0  0  0  0  0  0  0  0  0  0  0  0
    1.6884    0.6053   -0.1719 C   0  0  0  0  0  0  0  0  0  0  0  0
    2.1442    0.3002    1.0913 C   0  0  0  0  0  0  0  0  0  0  0  0
    1.2119    0.0067    2.0734 C   0  0  0  0  0  0  0  0  0  0  0  0
   -0.1342    0.0124    1.8270 C   0  0  0  0  0  0  0  0  0  0  0  0
   -0.5874    0.3187    0.5643 C   0  0  0  0  0  0  0  0  0  0  0  0
    0.3004    0.6093   -0.4165 C   0  0  0  0  0  0  0  0  0  0  0  0
   -2.0163    0.3187    0.3275 N   0  0  0  0  0  0  0  0  0  0  0  0
   -2.7935    1.4747    0.5063 C   0  0  0  0  0  0  0  0  0  0  0  0
   -2.0745    2.6418    0.9370 N   0  0  0  0  0  0  0  0  0  0  0  0
   -4.0730    1.5171    0.3047 N   0  0  0  0  0  0  0  0  0  0  0  0
   -4.6454    0.2836   -0.1193 C   0  0  0  0  0  0  0  0  0  0  0  0
   -6.0636    0.2750   -0.3576 N   0  0  0  0  0  0  0  0  0  0  0  0
   -4.0036   -0.7845   -0.2971 N   0  0  0  0  0  0  0  0  0  0  0  0
   -2.6014   -0.9126   -0.0977 C   0  0  0  0  0  0  0  0  0  0  0  0
   -2.0069   -1.3608   -1.4323 C   0  0  0  0  0  0  0  0  0  0  0  0
   -2.2668   -2.0534    0.8652 C   0  0  0  0  0  0  0  0  0  0  0  0
    6.4261    0.6043   -0.8622 H   0  0  0  0  0  0  0  0  0  0  0  0
    6.3952   -0.6107   -2.2208 H   0  0  0  0  0  0  0  0  0  0  0  0
    6.4323   -1.1580   -0.5161 H   0  0  0  0  0  0  0  0  0  0  0  0
    4.1561   -0.9423   -0.2434 H   0  0  0  0  0  0  0  0  0  0  0  0
    4.1939   -1.0463   -2.0031 H   0  0  0  0  0  0  0  0  0  0  0  0
    4.1503    1.3412   -2.3341 H   0  0  0  0  0  0  0  0  0  0  0  0
    4.3801    1.6611   -0.5524 H   0  0  0  0  0  0  0  0  0  0  0  0
    3.2181    0.3036    1.3570 H   0  0  0  0  0  0  0  0  0  0  0  0
    1.6177   -0.2321    3.0665 H   0  0  0  0  0  0  0  0  0  0  0  0
   -0.8177   -0.2278    2.6444 H   0  0  0  0  0  0  0  0  0  0  0  0
   -0.0308    0.8534   -1.4178 H   0  0  0  0  0  0  0  0  0  0  0  0
   -1.7803    2.6843    1.9262 H   0  0  0  0  0  0  0  0  0  0  0  0
   -1.8680    3.4035    0.2633 H   0  0  0  0  0  0  0  0  0  0  0  0
   -6.5037    1.0212   -0.9330 H   0  0  0  0  0  0  0  0  0  0  0  0
   -6.6760   -0.4641    0.0319 H   0  0  0  0  0  0  0  0  0  0  0  0
   -2.5888   -2.2557   -1.7407 H   0  0  0  0  0  0  0  0  0  0  0  0
   -2.1613   -0.5943   -2.2176 H   0  0  0  0  0  0  0  0  0  0  0  0
   -0.9521   -1.6322   -1.3401 H   0  0  0  0  0  0  0  0  0  0  0  0
   -1.2203   -2.3445    0.7444 H   0  0  0  0  0  0  0  0  0  0  0  0
   -2.8911   -2.9432    0.6493 H   0  0  0  0  0  0  0  0  0  0  0  0
   -2.5397   -1.7139    1.8818 H   0  0  0  0  0  0  0  0  0  0  0  0
  1  2  1  0
  2  3  1  0
  3  4  1  0
  4  5  1  0
  5  6  2  0
  6  7  1  0
  7  8  2  0
  8  9  1  0
  9 10  2  0
  9 11  1  0
 11 12  1  0
 12 13  1  0
 12 14  2  0
 14 15  1  0
 15 16  1  0
 15 17  2  0
 17 18  1  0
 18 19  1  0
 18 20  1  0
 10  5  1  0
 18 11  1  0
  1 21  1  0
  1 22  1  0
  1 23  1  0
  2 24  1  0
  2 25  1  0
  3 26  1  0
  3 27  1  0
  6 28  1  0
  7 29  1  0
  8 30  1  0
 10 31  1  0
 13 32  1  0
 13 33  1  0
 16 34  1  0
 16 35  1  0
 19 36  1  0
 19 37  1  0
 19 38  1  0
 20 39  1  0
 20 40  1  0
 20 41  1  0
M  END
$$$$
[H]/C(C(=O)OC([H])([H])[H])=C(/[H])C(c1c([H])c([H])c(C([H])([H])C([H])([H])N([H])C(=O)c2c([H])c([H])c(OC([H])([H])[H])c([H])c2[H])c([H])c1[H])(C([H])([H])[H])C([H])([H])[H]
     RDKit          3D

 55 56  0  0  0  0  0  0  0  0999 V2000
   -4.8001   -4.8474    1.0940 C   0  0  0  0  0  0  0  0  0  0  0  0
   -3.8142   -4.4202    0.2004 O   0  0  0  0  0  0  0  0  0  0  0  0
   -3.9982   -4.1668   -1.1447 C   0  0  0  0  0  0  0  0  0  0  0  0
   -5.1562   -4.3306   -1.6252 O   0  0  0  0  0  0  0  0  0  0  0  0
   -2.8770   -3.7299   -1.9472 C   0  0  0  0  0  0  0  0  0  0  0  0
   -2.9910   -3.4711   -3.2408 C   0  0  0  0  0  0  0  0  0  0  0  0
   -1.7590   -3.0285   -3.9540 C   0  0  0  0  0  0  0  0  0  0  0  0
   -2.2035   -2.3662   -5.2283 C   0  0  0  0  0  0  0  0  0  0  0  0
   -0.9026   -4.2235   -4.3076 C   0  0  0  0  0  0  0  0  0  0  0  0
   -1.0113   -2.0914   -3.0687 C   0  0  0  0  0  0  0  0  0  0  0  0
    0.3432   -2.2237   -2.8940 C   0  0  0  0  0  0  0  0  0  0  0  0
    1.0215   -1.3320   -2.0573 C   0  0  0  0  0  0  0  0  0  0  0  0
    0.3752   -0.3114   -1.3922 C   0  0  0  0  0  0  0  0  0  0  0  0
    1.0972    0.6483   -0.4779 C   0  0  0  0  0  0  0  0  0  0  0  0
    1.0975    0.1674    0.9262 C   0  0  0  0  0  0  0  0  0  0  0  0
    1.8120    1.0950    1.7679 N   0  0  0  0  0  0  0  0  0  0  0  0
    1.3667    2.4156    1.9259 C   0  0  0  0  0  0  0  0  0  0  0  0
    0.3571    2.8782    1.3820 O   0  0  0  0  0  0  0  0  0  0  0  0
    2.1341    3.3325    2.7883 C   0  0  0  0  0  0  0  0  0  0  0  0
    2.0416    4.7018    2.5920 C   0  0  0  0  0  0  0  0  0  0  0  0
    2.7317    5.6084    3.3698 C   0  0  0  0  0  0  0  0  0  0  0  0
    3.5540    5.1540    4.3917 C   0  0  0  0  0  0  0  0  0  0  0  0
    4.2609    6.0684    5.1885 O   0  0  0  0  0  0  0  0  0  0  0  0
    4.1120    7.4658    4.9165 C   0  0  0  0  0  0  0  0  0  0  0  0
    3.6512    3.7981    4.5928 C   0  0  0  0  0  0  0  0  0  0  0  0
    2.9562    2.9015    3.8085 C   0  0  0  0  0  0  0  0  0  0  0  0
   -0.9840   -0.1889   -1.5763 C   0  0  0  0  0  0  0  0  0  0  0  0
   -1.6573   -1.0715   -2.4044 C   0  0  0  0  0  0  0  0  0  0  0  0
   -5.1685   -4.0434    1.7674 H   0  0  0  0  0  0  0  0  0  0  0  0
   -4.3337   -5.6625    1.7227 H   0  0  0  0  0  0  0  0  0  0  0  0
   -5.6045   -5.3428    0.5169 H   0  0  0  0  0  0  0  0  0  0  0  0
   -1.8938   -3.6103   -1.4476 H   0  0  0  0  0  0  0  0  0  0  0  0
   -3.9545   -3.5909   -3.7013 H   0  0  0  0  0  0  0  0  0  0  0  0
   -3.1887   -1.8473   -5.0867 H   0  0  0  0  0  0  0  0  0  0  0  0
   -1.5029   -1.6004   -5.5959 H   0  0  0  0  0  0  0  0  0  0  0  0
   -2.3541   -3.1034   -6.0442 H   0  0  0  0  0  0  0  0  0  0  0  0
   -0.1748   -3.9845   -5.1010 H   0  0  0  0  0  0  0  0  0  0  0  0
   -1.6226   -5.0110   -4.6768 H   0  0  0  0  0  0  0  0  0  0  0  0
   -0.3902   -4.5729   -3.3870 H   0  0  0  0  0  0  0  0  0  0  0  0
    0.9152   -2.9905   -3.3754 H   0  0  0  0  0  0  0  0  0  0  0  0
    2.0889   -1.4124   -1.9001 H   0  0  0  0  0  0  0  0  0  0  0  0
    0.5973    1.6177   -0.5599 H   0  0  0  0  0  0  0  0  0  0  0  0
    2.1622    0.7610   -0.8132 H   0  0  0  0  0  0  0  0  0  0  0  0
    1.5798   -0.8392    1.0417 H   0  0  0  0  0  0  0  0  0  0  0  0
    0.0564    0.0087    1.2950 H   0  0  0  0  0  0  0  0  0  0  0  0
    2.6913    0.7895    2.2813 H   0  0  0  0  0  0  0  0  0  0  0  0
    1.3946    5.0311    1.7893 H   0  0  0  0  0  0  0  0  0  0  0  0
    2.6511    6.6830    3.2060 H   0  0  0  0  0  0  0  0  0  0  0  0
    4.8191    8.0602    5.5308 H   0  0  0  0  0  0  0  0  0  0  0  0
    3.0466    7.7189    5.0847 H   0  0  0  0  0  0  0  0  0  0  0  0
    4.3320    7.6478    3.8236 H   0  0  0  0  0  0  0  0  0  0  0  0
    4.2786    3.4119    5.3744 H   0  0  0  0  0  0  0  0  0  0  0  0
    3.0342    1.8229    3.9746 H   0  0  0  0  0  0  0  0  0  0  0  0
   -1.4910    0.6146   -1.0526 H   0  0  0  0  0  0  0  0  0  0  0  0
   -2.7255   -0.9880   -2.5599 H   0  0  0  0  0  0  0  0  0  0  0  0
  1  2  1  0
  2  3  1  0
  3  4  2  0
  3  5  1  0
  5  6  2  0
  6  7  1  0
  7  8  1  0
  7  9  1  0
  7 10  1  0
 10 11  2  0
 11 12  1  0
 12 13  2  0
 13 14  1  0
 14 15  1  0
 15 16  1  0
 16 17  1  0
 17 18  2  0
 17 19  1  0
 19 20  2  0
 20 21  1  0
 21 22  2  0
 22 23  1  0
 23 24  1  0
 22 25  1  0
 25 26  2  0
 13 27  1  0
 27 28  2  0
 28 10  1  0
 26 19  1  0
  1 29  1  0
  1 30  1  0
  1 31  1  0
  5 32  1  0
  6 33  1  0
  8 34  1  0
  8 35  1  0
  8 36  1  0
  9 37  1  0
  9 38  1  0
  9 39  1  0
 11 40  1  0
 12 41  1  0
 14 42  1  0
 14 43  1  0
 15 44  1  0
 15 45  1  0
 16 46  1  0
 20 47  1  0
 21 48  1  0
 24 49  1  0
 24 50  1  0
 24 51  1  0
 25 52  1  0
 26 53  1  0
 27 54  1  0
 28 55  1  0
M  END
$$$$
[H]c1c([H])c(C#N)c([H])c(N([H])c2nc(N([H])c3c([H])c([H])c([H])c(C(F)(F)F)c3[H])n3c([H])c(C([H])([H])[H])nc3n2)c1[H]
     RDKit          3D

 44 47  0  0  0  0  0  0  0  0999 V2000
   -0.5922   -5.9149   -0.3580 C   0  0  0  0  0  0  0  0  0  0  0  0
   -0.2285   -4.4625   -0.2336 C   0  0  0  0  0  0  0  0  0  0  0  0
   -1.1111   -3.4434   -0.0359 C   0  0  0  0  0  0  0  0  0  0  0  0
   -0.4827   -2.2542    0.0300 N   0  0  0  0  0  0  0  0  0  0  0  0
   -0.9165   -0.9910    0.2010 C   0  0  0  0  0  0  0  0  0  0  0  0
   -2.2886   -0.7267    0.3444 N   0  0  0  0  0  0  0  0  0  0  0  0
   -2.9045    0.5336    0.4842 C   0  0  0  0  0  0  0  0  0  0  0  0
   -2.2793    1.6192    1.0377 C   0  0  0  0  0  0  0  0  0  0  0  0
   -2.8824    2.8828    1.0941 C   0  0  0  0  0  0  0  0  0  0  0  0
   -4.1306    3.0559    0.5856 C   0  0  0  0  0  0  0  0  0  0  0  0
   -4.7919    1.9861    0.0202 C   0  0  0  0  0  0  0  0  0  0  0  0
   -4.1889    0.7475   -0.0282 C   0  0  0  0  0  0  0  0  0  0  0  0
   -6.1484    2.2391   -0.5412 C   0  0  0  0  0  0  0  0  0  0  0  0
   -6.1799    3.4949   -1.1481 F   0  0  0  0  0  0  0  0  0  0  0  0
   -6.4144    1.2531   -1.4955 F   0  0  0  0  0  0  0  0  0  0  0  0
   -7.0737    2.1957    0.4683 F   0  0  0  0  0  0  0  0  0  0  0  0
    0.0100   -0.0450    0.2032 N   0  0  0  0  0  0  0  0  0  0  0  0
    1.3553   -0.2453    0.0471 C   0  0  0  0  0  0  0  0  0  0  0  0
    2.1727    0.8892    0.0776 N   0  0  0  0  0  0  0  0  0  0  0  0
    3.5755    0.9584   -0.0622 C   0  0  0  0  0  0  0  0  0  0  0  0
    4.4125   -0.1302   -0.1737 C   0  0  0  0  0  0  0  0  0  0  0  0
    5.7874    0.0360   -0.3165 C   0  0  0  0  0  0  0  0  0  0  0  0
    6.3723    1.2820   -0.3510 C   0  0  0  0  0  0  0  0  0  0  0  0
    5.5467    2.4065   -0.2384 C   0  0  0  0  0  0  0  0  0  0  0  0
    4.2118    2.2011   -0.1018 C   0  0  0  0  0  0  0  0  0  0  0  0
    6.1187    3.7212   -0.2662 C   0  0  0  0  0  0  0  0  0  0  0  0
    6.5823    4.8042   -0.2943 N   0  0  0  0  0  0  0  0  0  0  0  0
    1.7019   -1.5152   -0.1171 N   0  0  0  0  0  0  0  0  0  0  0  0
    0.8269   -2.5366   -0.1306 C   0  0  0  0  0  0  0  0  0  0  0  0
    0.9808   -3.8792   -0.2899 N   0  0  0  0  0  0  0  0  0  0  0  0
    0.1160   -6.5726    0.1384 H   0  0  0  0  0  0  0  0  0  0  0  0
   -1.6054   -6.0754    0.0688 H   0  0  0  0  0  0  0  0  0  0  0  0
   -0.6561   -6.1485   -1.4421 H   0  0  0  0  0  0  0  0  0  0  0  0
   -2.1997   -3.5344    0.0599 H   0  0  0  0  0  0  0  0  0  0  0  0
   -2.9365   -1.5779    0.3582 H   0  0  0  0  0  0  0  0  0  0  0  0
   -1.2944    1.5824    1.4849 H   0  0  0  0  0  0  0  0  0  0  0  0
   -2.3296    3.7148    1.5538 H   0  0  0  0  0  0  0  0  0  0  0  0
   -4.5592    4.0484    0.6440 H   0  0  0  0  0  0  0  0  0  0  0  0
   -4.7420   -0.0682   -0.4707 H   0  0  0  0  0  0  0  0  0  0  0  0
    1.6896    1.8453    0.2312 H   0  0  0  0  0  0  0  0  0  0  0  0
    4.0405   -1.1292   -0.1533 H   0  0  0  0  0  0  0  0  0  0  0  0
    6.4289   -0.8093   -0.3981 H   0  0  0  0  0  0  0  0  0  0  0  0
    7.4198    1.4590   -0.4627 H   0  0  0  0  0  0  0  0  0  0  0  0
    3.5870    3.1032   -0.0236 H   0  0  0  0  0  0  0  0  0  0  0  0
  1  2  1  0
  2  3  2  0
  3  4  1  0
  4  5  1  0
  5  6  1  0
  6  7  1  0
  7  8  2  0
  8  9  1  0
  9 10  2  0
 10 11  1  0
 11 12  2  0
 11 13  1  0
 13 14  1  0
 13 15  1  0
 13 16  1  0
  5 17  2  0
 17 18  1  0
 18 19  1  0
 19 20  1  0
 20 21  2  0
 21 22  1  0
 22 23  2  0
 23 24  1  0
 24 25  2  0
 24 26  1  0
 26 27  3  0
 18 28  2  0
 28 29  1  0
 29 30  2  0
 30  2  1  0
 29  4  1  0
 12  7  1  0
 25 20  1  0
  1 31  1  0
  1 32  1  0
  1 33  1  0
  3 34  1  0
  6 35  1  0
  8 36  1  0
  9 37  1  0
 10 38  1  0
 12 39  1  0
 19 40  1  0
 21 41  1  0
 22 42  1  0
 23 43  1  0
 25 44  1  0
M  END
$$$$
[H]N=C(N([H])[H])N([H])C([H])([H])C([H])([H])C([H])([H])[C@@]([H])(C([H])=O)N([H])C(=O)[C@@]1([H])N(C(=O)[C@]([H])(N([H])S(=O)(=O)C2([H])C([H])([H])C([H])([H])N(C([H])([H])[H])C([H])([H])C2([H])[H])C([H])([H])c2c([H])c([H])c(O[H])c([H])c2[H])C([H])([H])C([H])([H])C1([H])[H]
     RDKit          3D

 81 83  0  0  0  0  0  0  0  0999 V2000
   -7.5351   -2.9744    2.3912 C   0  0  0  0  0  0  0  0  0  0  0  0
   -6.7891   -2.2173    1.4263 N   0  0  0  0  0  0  0  0  0  0  0  0
   -5.6769   -2.9552    0.8594 C   0  0  0  0  0  0  0  0  0  0  0  0
   -4.4492   -2.9650    1.7595 C   0  0  0  0  0  0  0  0  0  0  0  0
   -4.0925   -1.5789    2.2481 C   0  0  0  0  0  0  0  0  0  0  0  0
   -4.9878   -0.5793    1.5722 C   0  0  0  0  0  0  0  0  0  0  0  0
   -6.4507   -0.9243    1.9053 C   0  0  0  0  0  0  0  0  0  0  0  0
   -2.3617   -1.2899    2.1449 S   0  0  0  0  0  0  0  0  0  0  0  0
   -2.0034    0.0387    2.8004 O   0  0  0  0  0  0  0  0  0  0  0  0
   -1.6465   -2.3829    2.9457 O   0  0  0  0  0  0  0  0  0  0  0  0
   -1.7986   -1.3402    0.5466 N   0  0  0  0  0  0  0  0  0  0  0  0
   -1.8041   -0.0430   -0.1744 C   0  0  2  0  0  0  0  0  0  0  0  0
   -2.4987   -0.2232   -1.4730 C   0  0  0  0  0  0  0  0  0  0  0  0
   -2.5816    0.9046   -2.3723 C   0  0  0  0  0  0  0  0  0  0  0  0
   -1.5558    1.0381   -3.3261 C   0  0  0  0  0  0  0  0  0  0  0  0
   -1.5197    2.0647   -4.2400 C   0  0  0  0  0  0  0  0  0  0  0  0
   -2.5058    3.0157   -4.2475 C   0  0  0  0  0  0  0  0  0  0  0  0
   -2.4806    4.0815   -5.1789 O   0  0  0  0  0  0  0  0  0  0  0  0
   -3.5301    2.9129   -3.3188 C   0  0  0  0  0  0  0  0  0  0  0  0
   -3.5562    1.8822   -2.4092 C   0  0  0  0  0  0  0  0  0  0  0  0
   -0.3353    0.1485   -0.5239 C   0  0  0  0  0  0  0  0  0  0  0  0
    0.2458   -0.9367   -0.8742 O   0  0  0  0  0  0  0  0  0  0  0  0
    0.3346    1.3833   -0.4681 N   0  0  0  0  0  0  0  0  0  0  0  0
   -0.1578    2.6475   -0.0740 C   0  0  0  0  0  0  0  0  0  0  0  0
    0.4540    3.6081   -1.0637 C   0  0  0  0  0  0  0  0  0  0  0  0
    1.7155    2.9221   -1.4951 C   0  0  0  0  0  0  0  0  0  0  0  0
    1.7165    1.5591   -0.8290 C   0  0  1  0  0  0  0  0  0  0  0  0
    2.6167    1.6168    0.3302 C   0  0  0  0  0  0  0  0  0  0  0  0
    2.1419    1.5427    1.4808 O   0  0  0  0  0  0  0  0  0  0  0  0
    4.0040    1.7567    0.1357 N   0  0  0  0  0  0  0  0  0  0  0  0
    4.9728    1.8174    1.2270 C   0  0  1  0  0  0  0  0  0  0  0  0
    5.9114    0.6126    1.1677 C   0  0  0  0  0  0  0  0  0  0  0  0
    5.1134   -0.6685    1.3183 C   0  0  0  0  0  0  0  0  0  0  0  0
    6.0077   -1.8686    1.2562 C   0  0  0  0  0  0  0  0  0  0  0  0
    6.7027   -1.9532   -0.0046 N   0  0  0  0  0  0  0  0  0  0  0  0
    7.6053   -2.9831   -0.3217 C   0  0  0  0  0  0  0  0  0  0  0  0
    8.1764   -3.8083    0.6703 N   0  0  0  0  0  0  0  0  0  0  0  0
    7.9578   -3.2136   -1.5692 N   0  0  0  0  0  0  0  0  0  0  0  0
    5.7306    3.0628    1.2071 C   0  0  0  0  0  0  0  0  0  0  0  0
    5.5588    3.9044    0.3480 O   0  0  0  0  0  0  0  0  0  0  0  0
   -6.9856   -3.9535    2.5888 H   0  0  0  0  0  0  0  0  0  0  0  0
   -7.5902   -2.4602    3.3884 H   0  0  0  0  0  0  0  0  0  0  0  0
   -8.5556   -3.1611    1.9877 H   0  0  0  0  0  0  0  0  0  0  0  0
   -5.4243   -2.6403   -0.1748 H   0  0  0  0  0  0  0  0  0  0  0  0
   -6.0008   -4.0320    0.7564 H   0  0  0  0  0  0  0  0  0  0  0  0
   -4.6684   -3.6382    2.6223 H   0  0  0  0  0  0  0  0  0  0  0  0
   -3.6268   -3.3898    1.1402 H   0  0  0  0  0  0  0  0  0  0  0  0
   -4.3846   -1.5415    3.3500 H   0  0  0  0  0  0  0  0  0  0  0  0
   -4.7934    0.4606    1.8210 H   0  0  0  0  0  0  0  0  0  0  0  0
   -4.9261   -0.7485    0.4819 H   0  0  0  0  0  0  0  0  0  0  0  0
   -7.0673   -0.1522    1.4222 H   0  0  0  0  0  0  0  0  0  0  0  0
   -6.6029   -0.7826    3.0105 H   0  0  0  0  0  0  0  0  0  0  0  0
   -2.3090   -2.0582   -0.0233 H   0  0  0  0  0  0  0  0  0  0  0  0
   -2.1691    0.7102    0.5165 H   0  0  0  0  0  0  0  0  0  0  0  0
   -1.9732   -1.0586   -2.0268 H   0  0  0  0  0  0  0  0  0  0  0  0
   -3.5468   -0.6281   -1.3554 H   0  0  0  0  0  0  0  0  0  0  0  0
   -0.7331    0.3306   -3.3984 H   0  0  0  0  0  0  0  0  0  0  0  0
   -0.7176    2.1729   -4.9810 H   0  0  0  0  0  0  0  0  0  0  0  0
   -2.9642    3.8644   -6.0642 H   0  0  0  0  0  0  0  0  0  0  0  0
   -4.3173    3.6883   -3.3678 H   0  0  0  0  0  0  0  0  0  0  0  0
   -4.3548    1.7922   -1.6817 H   0  0  0  0  0  0  0  0  0  0  0  0
   -1.2719    2.7187   -0.0540 H   0  0  0  0  0  0  0  0  0  0  0  0
    0.2102    2.9741    0.9367 H   0  0  0  0  0  0  0  0  0  0  0  0
    0.6323    4.6242   -0.6201 H   0  0  0  0  0  0  0  0  0  0  0  0
   -0.2707    3.7446   -1.9144 H   0  0  0  0  0  0  0  0  0  0  0  0
    2.5784    3.5360   -1.1642 H   0  0  0  0  0  0  0  0  0  0  0  0
    1.7697    2.7547   -2.6084 H   0  0  0  0  0  0  0  0  0  0  0  0
    2.0397    0.7629   -1.5795 H   0  0  0  0  0  0  0  0  0  0  0  0
    4.3916    1.8195   -0.8452 H   0  0  0  0  0  0  0  0  0  0  0  0
    4.4127    1.7001    2.1705 H   0  0  0  0  0  0  0  0  0  0  0  0
    6.3854    0.5817    0.1621 H   0  0  0  0  0  0  0  0  0  0  0  0
    6.6564    0.6513    1.9790 H   0  0  0  0  0  0  0  0  0  0  0  0
    4.5840   -0.6893    2.3009 H   0  0  0  0  0  0  0  0  0  0  0  0
    4.3576   -0.7696    0.5041 H   0  0  0  0  0  0  0  0  0  0  0  0
    5.3546   -2.7957    1.3225 H   0  0  0  0  0  0  0  0  0  0  0  0
    6.7683   -1.8516    2.0641 H   0  0  0  0  0  0  0  0  0  0  0  0
    6.5342   -1.2095   -0.7316 H   0  0  0  0  0  0  0  0  0  0  0  0
    7.6599   -4.5764    1.1796 H   0  0  0  0  0  0  0  0  0  0  0  0
    9.1729   -3.6594    0.9215 H   0  0  0  0  0  0  0  0  0  0  0  0
    8.6192   -3.9780   -1.7898 H   0  0  0  0  0  0  0  0  0  0  0  0
    6.4779    3.2723    1.9763 H   0  0  0  0  0  0  0  0  0  0  0  0
  1  2  1  0
  2  3  1  0
  3  4  1  0
  4  5  1  0
  5  6  1  0
  6  7  1  0
  5  8  1  0
  8  9  2  0
  8 10  2  0
  8 11  1  0
 11 12  1  0
 12 13  1  0
 13 14  1  0
 14 15  2  0
 15 16  1  0
 16 17  2  0
 17 18  1  0
 17 19  1  0
 19 20  2  0
 12 21  1  0
 21 22  2  0
 21 23  1  0
 23 24  1  0
 24 25  1  0
 25 26  1  0
 26 27  1  0
 27 28  1  0
 28 29  2  0
 28 30  1  0
 30 31  1  0
 31 32  1  0
 32 33  1  0
 33 34  1  0
 34 35  1  0
 35 36  1  0
 36 37  1  0
 36 38  2  3
 31 39  1  0
 39 40  2  0
  7  2  1  0
 20 14  1  0
 27 23  1  0
  1 41  1  0
  1 42  1  0
  1 43  1  0
  3 44  1  0
  3 45  1  0
  4 46  1  0
  4 47  1  0
  5 48  1  0
  6 49  1  0
  6 50  1  0
  7 51  1  0
  7 52  1  0
 11 53  1  0
 12 54  1  1
 13 55  1  0
 13 56  1  0
 15 57  1  0
 16 58  1  0
 18 59  1  0
 19 60  1  0
 20 61  1  0
 24 62  1  0
 24 63  1  0
 25 64  1  0
 25 65  1  0
 26 66  1  0
 26 67  1  0
 27 68  1  6
 30 69  1  0
 31 70  1  1
 32 71  1  0
 32 72  1  0
 33 73  1  0
 33 74  1  0
 34 75  1  0
 34 76  1  0
 35 77  1  0
 37 78  1  0
 37 79  1  0
 38 80  1  0
 39 81  1  0
M  END
$$$$
[H]c1nc(N2C([H])([H])C(C([H])([H])[H])(C([H])([H])[H])C2([H])[H])c([H])c(C(=O)N([H])c2nn(C([H])([H])C3([H])C([H])([H])C3([H])[H])c([H])c2[H])c1[H]
     RDKit          3D

 47 50  0  0  0  0  0  0  0  0999 V2000
   -5.3746   -3.0594    1.1292 C   0  0  0  0  0  0  0  0  0  0  0  0
   -4.8050   -1.7925    0.5855 C   0  0  0  0  0  0  0  0  0  0  0  0
   -4.9665   -1.5625   -0.8991 C   0  0  0  0  0  0  0  0  0  0  0  0
   -3.3680   -1.5046    1.0182 C   0  0  0  0  0  0  0  0  0  0  0  0
   -3.7481   -0.0985    1.0298 N   0  0  0  0  0  0  0  0  0  0  0  0
   -5.0857   -0.5342    1.4104 C   0  0  0  0  0  0  0  0  0  0  0  0
   -3.1294    1.1570    0.7898 C   0  0  0  0  0  0  0  0  0  0  0  0
   -1.7651    1.1532    0.5004 C   0  0  0  0  0  0  0  0  0  0  0  0
   -1.1284    2.3487    0.2535 C   0  0  0  0  0  0  0  0  0  0  0  0
   -1.8416    3.5382    0.2935 C   0  0  0  0  0  0  0  0  0  0  0  0
   -3.1800    3.4832    0.5830 C   0  0  0  0  0  0  0  0  0  0  0  0
   -3.7888    2.3127    0.8215 N   0  0  0  0  0  0  0  0  0  0  0  0
    0.2987    2.3318   -0.0391 C   0  0  0  0  0  0  0  0  0  0  0  0
    0.7721    3.3290   -0.6070 O   0  0  0  0  0  0  0  0  0  0  0  0
    1.0897    1.2367    0.3103 N   0  0  0  0  0  0  0  0  0  0  0  0
    2.4772    1.2044    0.0300 C   0  0  0  0  0  0  0  0  0  0  0  0
    3.3070    2.1044   -0.5745 C   0  0  0  0  0  0  0  0  0  0  0  0
    4.5978    1.5635   -0.5935 C   0  0  0  0  0  0  0  0  0  0  0  0
    4.5204    0.3591   -0.0056 N   0  0  0  0  0  0  0  0  0  0  0  0
    5.6006   -0.5864    0.2097 C   0  0  0  0  0  0  0  0  0  0  0  0
    5.6354   -1.4905   -1.0285 C   0  0  0  0  0  0  0  0  0  0  0  0
    5.8615   -0.9305   -2.3650 C   0  0  0  0  0  0  0  0  0  0  0  0
    6.9654   -1.6949   -1.6562 C   0  0  0  0  0  0  0  0  0  0  0  0
    3.2734    0.1487    0.3604 N   0  0  0  0  0  0  0  0  0  0  0  0
   -6.0335   -3.5086    0.3826 H   0  0  0  0  0  0  0  0  0  0  0  0
   -6.0127   -2.8049    2.0099 H   0  0  0  0  0  0  0  0  0  0  0  0
   -4.5355   -3.7192    1.4271 H   0  0  0  0  0  0  0  0  0  0  0  0
   -5.1066   -0.4764   -1.0635 H   0  0  0  0  0  0  0  0  0  0  0  0
   -4.0663   -1.8778   -1.4726 H   0  0  0  0  0  0  0  0  0  0  0  0
   -5.8220   -2.1603   -1.2766 H   0  0  0  0  0  0  0  0  0  0  0  0
   -3.1979   -1.8463    2.0429 H   0  0  0  0  0  0  0  0  0  0  0  0
   -2.6101   -1.7657    0.2575 H   0  0  0  0  0  0  0  0  0  0  0  0
   -5.1617   -0.8197    2.4765 H   0  0  0  0  0  0  0  0  0  0  0  0
   -5.8976    0.0925    0.9973 H   0  0  0  0  0  0  0  0  0  0  0  0
   -1.2798    0.1876    0.4834 H   0  0  0  0  0  0  0  0  0  0  0  0
   -1.3186    4.4587    0.0970 H   0  0  0  0  0  0  0  0  0  0  0  0
   -3.7295    4.4339    0.6086 H   0  0  0  0  0  0  0  0  0  0  0  0
    0.6669    0.3793    0.8031 H   0  0  0  0  0  0  0  0  0  0  0  0
    3.0720    3.0701   -0.9832 H   0  0  0  0  0  0  0  0  0  0  0  0
    5.4644    2.0527   -1.0118 H   0  0  0  0  0  0  0  0  0  0  0  0
    5.3607   -1.1747    1.1078 H   0  0  0  0  0  0  0  0  0  0  0  0
    6.5461   -0.0118    0.2873 H   0  0  0  0  0  0  0  0  0  0  0  0
    4.9909   -2.3871   -0.9052 H   0  0  0  0  0  0  0  0  0  0  0  0
    5.4078   -1.5159   -3.2109 H   0  0  0  0  0  0  0  0  0  0  0  0
    5.9713    0.1344   -2.5883 H   0  0  0  0  0  0  0  0  0  0  0  0
    7.2742   -2.6879   -2.0382 H   0  0  0  0  0  0  0  0  0  0  0  0
    7.7996   -1.0695   -1.2615 H   0  0  0  0  0  0  0  0  0  0  0  0
  1  2  1  0
  2  3  1  0
  2  4  1  0
  4  5  1  0
  5  6  1  0
  5  7  1  0
  7  8  2  0
  8  9  1  0
  9 10  2  0
 10 11  1  0
 11 12  2  0
  9 13  1  0
 13 14  2  0
 13 15  1  0
 15 16  1  0
 16 17  1  0
 17 18  2  0
 18 19  1  0
 19 20  1  0
 20 21  1  0
 21 22  1  0
 22 23  1  0
 19 24  1  0
  6  2  1  0
 12  7  1  0
 24 16  2  0
 23 21  1  0
  1 25  1  0
  1 26  1  0
  1 27  1  0
  3 28  1  0
  3 29  1  0
  3 30  1  0
  4 31  1  0
  4 32  1  0
  6 33  1  0
  6 34  1  0
  8 35  1  0
 10 36  1  0
 11 37  1  0
 15 38  1  0
 17 39  1  0
 18 40  1  0
 20 41  1  0
 20 42  1  0
 21 43  1  0
 22 44  1  0
 22 45  1  0
 23 46  1  0
 23 47  1  0
M  END
$$$$
[H]c1nc(N2C([H])([H])C3([H])N(C(=O)c4[se]c(-c5c([H])c([H])c([H])c([H])c5[H])nc4C([H])([H])[H])C([H])([H])C2([H])C3([H])[H])nc([H])c1C(F)(F)F
     RDKit          3D

 49 53  0  0  0  0  0  0  0  0999 V2000
   -2.7666   -2.4120    2.6353 C   0  0  0  0  0  0  0  0  0  0  0  0
   -3.0487   -1.3844    1.4980 C   0  0  0  0  0  0  0  0  0  0  0  0
   -4.2101   -1.1780    1.0668 N   0  0  0  0  0  0  0  0  0  0  0  0
   -4.7366   -0.4628    0.1794 C   0  0  0  0  0  0  0  0  0  0  0  0
   -2.9669    0.3844   -0.4858 Se  0  0  0  0  0  2  0  0  0  0  0  0
   -1.9334   -0.8029    1.0438 C   0  0  0  0  0  0  0  0  0  0  0  0
   -0.6062   -0.4973    1.3985 C   0  0  0  0  0  0  0  0  0  0  0  0
   -0.2814   -0.6032    2.6724 O   0  0  0  0  0  0  0  0  0  0  0  0
    0.4546   -0.0727    0.6069 N   0  0  0  0  0  0  0  0  0  0  0  0
    1.6790    0.5192    1.2342 C   0  0  0  0  0  0  0  0  0  0  0  0
    2.3031    1.2729    0.1040 C   0  0  0  0  0  0  0  0  0  0  0  0
    1.2456    1.3136   -0.9668 C   0  0  0  0  0  0  0  0  0  0  0  0
    0.8272   -0.1592   -0.7840 C   0  0  0  0  0  0  0  0  0  0  0  0
    2.2314   -0.8031   -0.8765 C   0  0  0  0  0  0  0  0  0  0  0  0
    3.1588    0.1879   -0.4842 N   0  0  0  0  0  0  0  0  0  0  0  0
    4.5574    0.2865   -0.4782 C   0  0  0  0  0  0  0  0  0  0  0  0
    5.3849   -0.6087   -0.9813 N   0  0  0  0  0  0  0  0  0  0  0  0
    6.7402   -0.5410   -0.9017 C   0  0  0  0  0  0  0  0  0  0  0  0
    7.2776    0.5160   -0.2575 C   0  0  0  0  0  0  0  0  0  0  0  0
    6.4242    1.4827    0.2831 C   0  0  0  0  0  0  0  0  0  0  0  0
    5.1309    1.3641    0.1708 N   0  0  0  0  0  0  0  0  0  0  0  0
    8.7346    0.7132   -0.0406 C   0  0  0  0  0  0  0  0  0  0  0  0
    9.3374   -0.4635    0.3641 F   0  0  0  0  0  0  0  0  0  0  0  0
    9.3613    1.3098   -1.0812 F   0  0  0  0  0  0  0  0  0  0  0  0
    8.9251    1.6032    1.0505 F   0  0  0  0  0  0  0  0  0  0  0  0
   -6.0230   -0.1011   -0.3650 C   0  0  0  0  0  0  0  0  0  0  0  0
   -7.1326   -0.7594    0.1034 C   0  0  0  0  0  0  0  0  0  0  0  0
   -8.4066   -0.4509   -0.2863 C   0  0  0  0  0  0  0  0  0  0  0  0
   -8.6072    0.5726   -1.1943 C   0  0  0  0  0  0  0  0  0  0  0  0
   -7.4919    1.2381   -1.6687 C   0  0  0  0  0  0  0  0  0  0  0  0
   -6.2141    0.9154   -1.2717 C   0  0  0  0  0  0  0  0  0  0  0  0
   -2.2215   -1.9557    3.4431 H   0  0  0  0  0  0  0  0  0  0  0  0
   -2.1675   -3.2003    2.0941 H   0  0  0  0  0  0  0  0  0  0  0  0
   -3.6619   -2.9080    2.9830 H   0  0  0  0  0  0  0  0  0  0  0  0
    1.4267    1.1596    2.0770 H   0  0  0  0  0  0  0  0  0  0  0  0
    2.3485   -0.3242    1.5207 H   0  0  0  0  0  0  0  0  0  0  0  0
    2.8390    2.1468    0.3343 H   0  0  0  0  0  0  0  0  0  0  0  0
    1.6337    1.4521   -2.0054 H   0  0  0  0  0  0  0  0  0  0  0  0
    0.3792    1.9600   -0.7243 H   0  0  0  0  0  0  0  0  0  0  0  0
    0.1054   -0.5400   -1.4827 H   0  0  0  0  0  0  0  0  0  0  0  0
    2.2642   -1.7462   -0.2793 H   0  0  0  0  0  0  0  0  0  0  0  0
    2.3478   -1.1673   -1.9469 H   0  0  0  0  0  0  0  0  0  0  0  0
    7.3956   -1.3171   -1.3301 H   0  0  0  0  0  0  0  0  0  0  0  0
    6.8645    2.3094    0.7868 H   0  0  0  0  0  0  0  0  0  0  0  0
   -7.0209   -1.5773    0.8391 H   0  0  0  0  0  0  0  0  0  0  0  0
   -9.2870   -0.9778    0.0986 H   0  0  0  0  0  0  0  0  0  0  0  0
   -9.6107    0.8586   -1.5510 H   0  0  0  0  0  0  0  0  0  0  0  0
   -7.6586    2.0393   -2.3640 H   0  0  0  0  0  0  0  0  0  0  0  0
   -5.3241    1.4087   -1.6144 H   0  0  0  0  0  0  0  0  0  0  0  0
  1  2  1  0
  2  3  1  0
  3  4  2  0
  4  5  1  0
  5  6  1  0
  6  7  1  0
  7  8  2  0
  7  9  1  0
  9 10  1  0
 10 11  1  0
 11 12  1  0
 12 13  1  0
 13 14  1  0
 14 15  1  0
 15 16  1  0
 16 17  2  0
 17 18  1  0
 18 19  2  0
 19 20  1  0
 20 21  2  0
 19 22  1  0
 22 23  1  0
 22 24  1  0
 22 25  1  0
  4 26  1  0
 26 27  2  0
 27 28  1  0
 28 29  2  0
 29 30  1  0
 30 31  2  0
  6  2  2  0
 13  9  1  0
 21 16  1  0
 31 26  1  0
 15 11  1  0
  1 32  1  0
  1 33  1  0
  1 34  1  0
 10 35  1  0
 10 36  1  0
 11 37  1  0
 12 38  1  0
 12 39  1  0
 13 40  1  0
 14 41  1  0
 14 42  1  0
 18 43  1  0
 20 44  1  0
 27 45  1  0
 28 46  1  0
 29 47  1  0
 30 48  1  0
 31 49  1  0
M  END
$$$$
[H]OC(=O)C([H])([H])[C@@]([H])(N([H])[H])C([H])([H])OC(=O)c1nc2c([H])c([H])c([H])c([H])c2s1
     RDKit          3D

 31 32  0  0  0  0  0  0  0  0999 V2000
   -4.5798   -1.2062   -0.0820 N   0  0  0  0  0  0  0  0  0  0  0  0
   -3.2526   -0.6287    0.0698 C   0  0  1  0  0  0  0  0  0  0  0  0
   -2.3055   -1.5616   -0.6309 C   0  0  0  0  0  0  0  0  0  0  0  0
   -0.9771   -1.1779   -0.6321 O   0  0  0  0  0  0  0  0  0  0  0  0
   -0.1579   -0.9546    0.4329 C   0  0  0  0  0  0  0  0  0  0  0  0
   -0.5966   -1.0974    1.5835 O   0  0  0  0  0  0  0  0  0  0  0  0
    1.2285   -0.5503    0.1948 C   0  0  0  0  0  0  0  0  0  0  0  0
    2.1858   -0.2858    1.0651 N   0  0  0  0  0  0  0  0  0  0  0  0
    3.3726    0.0615    0.6572 C   0  0  0  0  0  0  0  0  0  0  0  0
    4.4783    0.3732    1.4717 C   0  0  0  0  0  0  0  0  0  0  0  0
    5.6554    0.7230    0.9119 C   0  0  0  0  0  0  0  0  0  0  0  0
    5.8984    0.8120   -0.4584 C   0  0  0  0  0  0  0  0  0  0  0  0
    4.8084    0.5053   -1.2456 C   0  0  0  0  0  0  0  0  0  0  0  0
    3.5808    0.1399   -0.6974 C   0  0  0  0  0  0  0  0  0  0  0  0
    2.0308   -0.3001   -1.2987 S   0  0  0  0  0  0  0  0  0  0  0  0
   -3.2684    0.7528   -0.5050 C   0  0  0  0  0  0  0  0  0  0  0  0
   -4.2835    1.5430    0.2329 C   0  0  0  0  0  0  0  0  0  0  0  0
   -4.1285    1.9358    1.5634 O   0  0  0  0  0  0  0  0  0  0  0  0
   -5.3563    1.8889   -0.3511 O   0  0  0  0  0  0  0  0  0  0  0  0
   -5.1881   -0.7252    0.6174 H   0  0  0  0  0  0  0  0  0  0  0  0
   -4.4736   -2.2325    0.1970 H   0  0  0  0  0  0  0  0  0  0  0  0
   -3.0727   -0.6356    1.1871 H   0  0  0  0  0  0  0  0  0  0  0  0
   -2.4889   -2.5883   -0.2428 H   0  0  0  0  0  0  0  0  0  0  0  0
   -2.6292   -1.6021   -1.7121 H   0  0  0  0  0  0  0  0  0  0  0  0
    4.4156    0.3420    2.5605 H   0  0  0  0  0  0  0  0  0  0  0  0
    6.5184    0.9611    1.5497 H   0  0  0  0  0  0  0  0  0  0  0  0
    6.8261    1.0886   -0.8956 H   0  0  0  0  0  0  0  0  0  0  0  0
    4.8269    0.5223   -2.3410 H   0  0  0  0  0  0  0  0  0  0  0  0
   -3.5794    0.6543   -1.5614 H   0  0  0  0  0  0  0  0  0  0  0  0
   -2.2955    1.2601   -0.4529 H   0  0  0  0  0  0  0  0  0  0  0  0
   -3.1926    1.9824    1.9470 H   0  0  0  0  0  0  0  0  0  0  0  0
  1  2  1  0
  2  3  1  0
  3  4  1  0
  4  5  1  0
  5  6  2  0
  5  7  1  0
  7  8  2  0
  8  9  1  0
  9 10  2  0
 10 11  1  0
 11 12  2  0
 12 13  1  0
 13 14  2  0
 14 15  1  0
  2 16  1  0
 16 17  1  0
 17 18  1  0
 17 19  2  0
 15  7  1  0
 14  9  1  0
  1 20  1  0
  1 21  1  0
  2 22  1  1
  3 23  1  0
  3 24  1  0
 10 25  1  0
 11 26  1  0
 12 27  1  0
 13 28  1  0
 16 29  1  0
 16 30  1  0
 18 31  1  0
M  END
$$$$
[H]c1nc(N([H])c2c([H])c(OC([H])([H])[H])c(C(=O)N([H])c3c([H])c(N([H])c4nc5c(c([H])c4[H])OC(C([H])([H])[H])(C([H])([H])[H])C(=O)N5[H])c([H])c(C([H])([H])[H])c3[H])c([H])c2OC([H])([H])[H])nc(-c2c([H])nc([H])c([H])c2[H])c1[H]
     RDKit          3D

 79 84  0  0  0  0  0  0  0  0999 V2000
   -3.4210    2.5589    3.1865 C   0  0  0  0  0  0  0  0  0  0  0  0
   -4.2201    1.9409    2.2003 O   0  0  0  0  0  0  0  0  0  0  0  0
   -3.7545    1.0238    1.2983 C   0  0  0  0  0  0  0  0  0  0  0  0
   -2.4479    0.6290    1.2855 C   0  0  0  0  0  0  0  0  0  0  0  0
   -1.9809   -0.3210    0.3454 C   0  0  0  0  0  0  0  0  0  0  0  0
   -0.5711   -0.6755    0.4152 C   0  0  0  0  0  0  0  0  0  0  0  0
    0.1344   -0.0902    1.3381 O   0  0  0  0  0  0  0  0  0  0  0  0
    0.0608   -1.5812   -0.4220 N   0  0  0  0  0  0  0  0  0  0  0  0
    1.4745   -1.8533   -0.2756 C   0  0  0  0  0  0  0  0  0  0  0  0
    1.8866   -3.1509   -0.6184 C   0  0  0  0  0  0  0  0  0  0  0  0
    3.2210   -3.4848   -0.5336 C   0  0  0  0  0  0  0  0  0  0  0  0
    3.6176   -4.8681   -0.9065 C   0  0  0  0  0  0  0  0  0  0  0  0
    4.1506   -2.5497   -0.1139 C   0  0  0  0  0  0  0  0  0  0  0  0
    3.7932   -1.2676    0.2301 C   0  0  0  0  0  0  0  0  0  0  0  0
    4.7015   -0.2760    0.6418 N   0  0  0  0  0  0  0  0  0  0  0  0
    6.0052   -0.0202    0.1799 C   0  0  0  0  0  0  0  0  0  0  0  0
    6.6001   -0.6478   -0.8858 C   0  0  0  0  0  0  0  0  0  0  0  0
    7.9226   -0.3471   -1.2367 C   0  0  0  0  0  0  0  0  0  0  0  0
    8.6544    0.5761   -0.5323 C   0  0  0  0  0  0  0  0  0  0  0  0
    9.9779    0.8718   -0.8902 O   0  0  0  0  0  0  0  0  0  0  0  0
   10.8743    1.3912    0.0740 C   0  0  0  0  0  0  0  0  0  0  0  0
   12.0151    2.0815   -0.6030 C   0  0  0  0  0  0  0  0  0  0  0  0
   11.3275    0.3200    1.0338 C   0  0  0  0  0  0  0  0  0  0  0  0
   10.1410    2.4305    0.8833 C   0  0  0  0  0  0  0  0  0  0  0  0
   10.7124    3.5010    1.2034 O   0  0  0  0  0  0  0  0  0  0  0  0
    8.8011    2.1464    1.2584 N   0  0  0  0  0  0  0  0  0  0  0  0
    8.0294    1.1960    0.5385 C   0  0  0  0  0  0  0  0  0  0  0  0
    6.7756    0.8972    0.8556 N   0  0  0  0  0  0  0  0  0  0  0  0
    2.4180   -0.9677    0.1290 C   0  0  0  0  0  0  0  0  0  0  0  0
   -2.8460   -0.8460   -0.5562 C   0  0  0  0  0  0  0  0  0  0  0  0
   -2.4704   -1.7840   -1.5141 O   0  0  0  0  0  0  0  0  0  0  0  0
   -3.3340   -2.3402   -2.4509 C   0  0  0  0  0  0  0  0  0  0  0  0
   -4.1947   -0.4375   -0.5418 C   0  0  0  0  0  0  0  0  0  0  0  0
   -4.6613    0.4812    0.3625 C   0  0  0  0  0  0  0  0  0  0  0  0
   -5.9838    0.9290    0.4299 N   0  0  0  0  0  0  0  0  0  0  0  0
   -7.0629    0.5159   -0.3899 C   0  0  0  0  0  0  0  0  0  0  0  0
   -7.0368   -0.3669   -1.3699 N   0  0  0  0  0  0  0  0  0  0  0  0
   -8.0439   -0.7582   -2.1417 C   0  0  0  0  0  0  0  0  0  0  0  0
   -9.2881   -0.1703   -1.8957 C   0  0  0  0  0  0  0  0  0  0  0  0
   -9.3732    0.7536   -0.8890 C   0  0  0  0  0  0  0  0  0  0  0  0
   -8.3026    1.0858   -0.1624 N   0  0  0  0  0  0  0  0  0  0  0  0
  -10.6820    1.3861   -0.6156 C   0  0  0  0  0  0  0  0  0  0  0  0
  -11.8049    1.0882   -1.3175 C   0  0  0  0  0  0  0  0  0  0  0  0
  -13.0053    1.7298   -0.9999 C   0  0  0  0  0  0  0  0  0  0  0  0
  -13.0157    2.6459    0.0156 C   0  0  0  0  0  0  0  0  0  0  0  0
  -11.9149    2.9420    0.7084 N   0  0  0  0  0  0  0  0  0  0  0  0
  -10.7683    2.3328    0.4093 C   0  0  0  0  0  0  0  0  0  0  0  0
   -2.6960    1.8654    3.6460 H   0  0  0  0  0  0  0  0  0  0  0  0
   -2.8334    3.3591    2.6759 H   0  0  0  0  0  0  0  0  0  0  0  0
   -4.0633    3.0541    3.9659 H   0  0  0  0  0  0  0  0  0  0  0  0
   -1.7653    1.0604    2.0167 H   0  0  0  0  0  0  0  0  0  0  0  0
   -0.4271   -2.0999   -1.1801 H   0  0  0  0  0  0  0  0  0  0  0  0
    1.1298   -3.8492   -0.9408 H   0  0  0  0  0  0  0  0  0  0  0  0
    3.6567   -4.8706   -2.0335 H   0  0  0  0  0  0  0  0  0  0  0  0
    4.5999   -5.1385   -0.4794 H   0  0  0  0  0  0  0  0  0  0  0  0
    2.8118   -5.5888   -0.6524 H   0  0  0  0  0  0  0  0  0  0  0  0
    5.1663   -2.9025   -0.0549 H   0  0  0  0  0  0  0  0  0  0  0  0
    4.3428    0.3733    1.4155 H   0  0  0  0  0  0  0  0  0  0  0  0
    6.0398   -1.3599   -1.4736 H   0  0  0  0  0  0  0  0  0  0  0  0
    8.3375   -0.8799   -2.0917 H   0  0  0  0  0  0  0  0  0  0  0  0
   11.8800    2.0776   -1.6959 H   0  0  0  0  0  0  0  0  0  0  0  0
   12.1502    3.1260   -0.2479 H   0  0  0  0  0  0  0  0  0  0  0  0
   12.9367    1.4885   -0.3963 H   0  0  0  0  0  0  0  0  0  0  0  0
   10.5742    0.2385    1.8660 H   0  0  0  0  0  0  0  0  0  0  0  0
   12.2939    0.6105    1.4939 H   0  0  0  0  0  0  0  0  0  0  0  0
   11.4842   -0.6596    0.5340 H   0  0  0  0  0  0  0  0  0  0  0  0
    8.4003    2.6487    2.0692 H   0  0  0  0  0  0  0  0  0  0  0  0
    2.1632    0.0640    0.3820 H   0  0  0  0  0  0  0  0  0  0  0  0
   -2.7203   -2.9979   -3.1171 H   0  0  0  0  0  0  0  0  0  0  0  0
   -3.8760   -1.6233   -3.0874 H   0  0  0  0  0  0  0  0  0  0  0  0
   -4.1315   -2.9802   -1.9788 H   0  0  0  0  0  0  0  0  0  0  0  0
   -4.8144   -0.9006   -1.2901 H   0  0  0  0  0  0  0  0  0  0  0  0
   -6.2163    1.6727    1.1872 H   0  0  0  0  0  0  0  0  0  0  0  0
   -7.9394   -1.5003   -2.9376 H   0  0  0  0  0  0  0  0  0  0  0  0
  -10.0838   -0.4985   -2.5275 H   0  0  0  0  0  0  0  0  0  0  0  0
  -11.8040    0.3578   -2.1303 H   0  0  0  0  0  0  0  0  0  0  0  0
  -13.9064    1.4928   -1.5611 H   0  0  0  0  0  0  0  0  0  0  0  0
  -13.9481    3.1630    0.2837 H   0  0  0  0  0  0  0  0  0  0  0  0
   -9.8522    2.5464    0.9496 H   0  0  0  0  0  0  0  0  0  0  0  0
  1  2  1  0
  2  3  1  0
  3  4  2  0
  4  5  1  0
  5  6  1  0
  6  7  2  0
  6  8  1  0
  8  9  1  0
  9 10  2  0
 10 11  1  0
 11 12  1  0
 11 13  2  0
 13 14  1  0
 14 15  1  0
 15 16  1  0
 16 17  2  0
 17 18  1  0
 18 19  2  0
 19 20  1  0
 20 21  1  0
 21 22  1  0
 21 23  1  0
 21 24  1  0
 24 25  2  0
 24 26  1  0
 26 27  1  0
 27 28  2  0
 14 29  2  0
  5 30  2  0
 30 31  1  0
 31 32  1  0
 30 33  1  0
 33 34  2  0
 34 35  1  0
 35 36  1  0
 36 37  2  0
 37 38  1  0
 38 39  2  0
 39 40  1  0
 40 41  2  0
 40 42  1  0
 42 43  2  0
 43 44  1  0
 44 45  2  0
 45 46  1  0
 46 47  2  0
 34  3  1  0
 41 36  1  0
 47 42  1  0
 29  9  1  0
 28 16  1  0
 27 19  1  0
  1 48  1  0
  1 49  1  0
  1 50  1  0
  4 51  1  0
  8 52  1  0
 10 53  1  0
 12 54  1  0
 12 55  1  0
 12 56  1  0
 13 57  1  0
 15 58  1  0
 17 59  1  0
 18 60  1  0
 22 61  1  0
 22 62  1  0
 22 63  1  0
 23 64  1  0
 23 65  1  0
 23 66  1  0
 26 67  1  0
 29 68  1  0
 32 69  1  0
 32 70  1  0
 32 71  1  0
 33 72  1  0
 35 73  1  0
 38 74  1  0
 39 75  1  0
 43 76  1  0
 44 77  1  0
 45 78  1  0
 47 79  1  0
M  END
$$$$
[H]c1nc2sc(-c3c([H])c([H])c(C#N)c([H])c3[H])c([H])c2c(N([H])c2c([H])c([H])c3c(c([H])c([H])n3[H])c2C([H])([H])[H])c1C#N
     RDKit          3D

 45 49  0  0  0  0  0  0  0  0999 V2000
   -2.3511    1.4329   -2.4865 C   0  0  0  0  0  0  0  0  0  0  0  0
   -2.5988    1.0526   -1.0784 C   0  0  0  0  0  0  0  0  0  0  0  0
   -2.0466   -0.1211   -0.6260 C   0  0  0  0  0  0  0  0  0  0  0  0
   -1.2721   -0.9224   -1.4958 N   0  0  0  0  0  0  0  0  0  0  0  0
   -0.6839   -2.1501   -1.0497 C   0  0  0  0  0  0  0  0  0  0  0  0
   -1.4082   -3.3004   -1.1812 C   0  0  0  0  0  0  0  0  0  0  0  0
   -0.9182   -4.5203   -0.7786 C   0  0  0  0  0  0  0  0  0  0  0  0
    0.3099   -4.5354   -0.2471 N   0  0  0  0  0  0  0  0  0  0  0  0
    1.0522   -3.3888   -0.1073 C   0  0  0  0  0  0  0  0  0  0  0  0
    2.6132   -3.0507    0.5121 S   0  0  0  0  0  0  0  0  0  0  0  0
    2.6462   -1.3660    0.2619 C   0  0  0  0  0  0  0  0  0  0  0  0
    1.4258   -1.1144   -0.3034 C   0  0  0  0  0  0  0  0  0  0  0  0
    0.6026   -2.1575   -0.4943 C   0  0  0  0  0  0  0  0  0  0  0  0
    3.7140   -0.3921    0.5690 C   0  0  0  0  0  0  0  0  0  0  0  0
    4.8789   -0.8351    1.1406 C   0  0  0  0  0  0  0  0  0  0  0  0
    5.8970    0.0803    1.4355 C   0  0  0  0  0  0  0  0  0  0  0  0
    5.7496    1.4226    1.1612 C   0  0  0  0  0  0  0  0  0  0  0  0
    4.5643    1.8522    0.5830 C   0  0  0  0  0  0  0  0  0  0  0  0
    3.5454    0.9382    0.2875 C   0  0  0  0  0  0  0  0  0  0  0  0
    6.8079    2.3263    1.4753 C   0  0  0  0  0  0  0  0  0  0  0  0
    7.6666    3.0800    1.7466 N   0  0  0  0  0  0  0  0  0  0  0  0
   -2.7517   -3.2525   -1.7675 C   0  0  0  0  0  0  0  0  0  0  0  0
   -3.8009   -3.2041   -2.2176 N   0  0  0  0  0  0  0  0  0  0  0  0
   -2.2746   -0.4793    0.6846 C   0  0  0  0  0  0  0  0  0  0  0  0
   -3.0372    0.3306    1.5007 C   0  0  0  0  0  0  0  0  0  0  0  0
   -3.5961    1.5112    1.0557 C   0  0  0  0  0  0  0  0  0  0  0  0
   -4.3571    2.4678    1.6065 N   0  0  0  0  0  0  0  0  0  0  0  0
   -4.6258    3.4247    0.7009 C   0  0  0  0  0  0  0  0  0  0  0  0
   -4.0185    3.0794   -0.4813 C   0  0  0  0  0  0  0  0  0  0  0  0
   -3.3727    1.8879   -0.2739 C   0  0  0  0  0  0  0  0  0  0  0  0
   -1.2702    1.3592   -2.7256 H   0  0  0  0  0  0  0  0  0  0  0  0
   -2.6059    2.5060   -2.5968 H   0  0  0  0  0  0  0  0  0  0  0  0
   -2.9957    0.8883   -3.2061 H   0  0  0  0  0  0  0  0  0  0  0  0
   -1.1071   -0.6537   -2.4677 H   0  0  0  0  0  0  0  0  0  0  0  0
   -1.5407   -5.3862   -0.9108 H   0  0  0  0  0  0  0  0  0  0  0  0
    1.1830   -0.0587   -0.5737 H   0  0  0  0  0  0  0  0  0  0  0  0
    5.0862   -1.8652    1.3917 H   0  0  0  0  0  0  0  0  0  0  0  0
    6.8221   -0.2590    1.8874 H   0  0  0  0  0  0  0  0  0  0  0  0
    4.4681    2.9057    0.3761 H   0  0  0  0  0  0  0  0  0  0  0  0
    2.6508    1.3440   -0.1617 H   0  0  0  0  0  0  0  0  0  0  0  0
   -1.8597   -1.3959    1.0860 H   0  0  0  0  0  0  0  0  0  0  0  0
   -3.2381    0.0773    2.5448 H   0  0  0  0  0  0  0  0  0  0  0  0
   -4.6954    2.4818    2.5818 H   0  0  0  0  0  0  0  0  0  0  0  0
   -5.2153    4.3296    0.8362 H   0  0  0  0  0  0  0  0  0  0  0  0
   -4.0420    3.6307   -1.3914 H   0  0  0  0  0  0  0  0  0  0  0  0
  1  2  1  0
  2  3  2  0
  3  4  1  0
  4  5  1  0
  5  6  2  0
  6  7  1  0
  7  8  2  0
  8  9  1  0
  9 10  1  0
 10 11  1  0
 11 12  2  0
 12 13  1  0
 11 14  1  0
 14 15  2  0
 15 16  1  0
 16 17  2  0
 17 18  1  0
 18 19  2  0
 17 20  1  0
 20 21  3  0
  6 22  1  0
 22 23  3  0
  3 24  1  0
 24 25  2  0
 25 26  1  0
 26 27  1  0
 27 28  1  0
 28 29  2  0
 29 30  1  0
 30  2  1  0
 13  5  1  0
 19 14  1  0
 30 26  2  0
 13  9  2  0
  1 31  1  0
  1 32  1  0
  1 33  1  0
  4 34  1  0
  7 35  1  0
 12 36  1  0
 15 37  1  0
 16 38  1  0
 18 39  1  0
 19 40  1  0
 24 41  1  0
 25 42  1  0
 27 43  1  0
 28 44  1  0
 29 45  1  0
M  END
$$$$
[H]c1c(C(F)(F)F)nc(N2C([H])([H])C([H])([H])C([H])(C([H])([H])[H])C([H])([H])C2([H])[H])c(C([H])([H])N([H])C(=O)C([H])(c2c([H])c([H])c(C([H])([H])[H])c([H])c2[H])c2c([H])c([H])c(N([H])S(=O)(=O)C([H])([H])[H])c(F)c2[H])c1[H]
     RDKit          3D

 73 76  0  0  0  0  0  0  0  0999 V2000
   -6.8341    3.8550    0.0338 C   0  0  0  0  0  0  0  0  0  0  0  0
   -6.2010    2.5015   -0.1597 C   0  0  0  0  0  0  0  0  0  0  0  0
   -5.5938    1.9710    1.1158 C   0  0  0  0  0  0  0  0  0  0  0  0
   -5.1153    0.5883    0.9222 C   0  0  0  0  0  0  0  0  0  0  0  0
   -4.5874    0.2856   -0.4009 N   0  0  0  0  0  0  0  0  0  0  0  0
   -4.7718    1.1048   -1.5585 C   0  0  0  0  0  0  0  0  0  0  0  0
   -5.0431    2.5518   -1.1680 C   0  0  0  0  0  0  0  0  0  0  0  0
   -3.8779   -0.9338   -0.5190 C   0  0  0  0  0  0  0  0  0  0  0  0
   -4.5903   -2.0421   -0.9155 N   0  0  0  0  0  0  0  0  0  0  0  0
   -4.0359   -3.2550   -0.9601 C   0  0  0  0  0  0  0  0  0  0  0  0
   -2.7237   -3.4103   -0.6019 C   0  0  0  0  0  0  0  0  0  0  0  0
   -1.9539   -2.3267   -0.1940 C   0  0  0  0  0  0  0  0  0  0  0  0
   -2.5550   -1.0726   -0.1606 C   0  0  0  0  0  0  0  0  0  0  0  0
   -1.7550    0.1165    0.1733 C   0  0  0  0  0  0  0  0  0  0  0  0
   -0.3987   -0.1014    0.5566 N   0  0  0  0  0  0  0  0  0  0  0  0
    0.7007   -0.5747   -0.1800 C   0  0  0  0  0  0  0  0  0  0  0  0
    0.5557   -0.8488   -1.4141 O   0  0  0  0  0  0  0  0  0  0  0  0
    2.0170   -0.7784    0.4524 C   0  0  0  0  0  0  0  0  0  0  0  0
    2.7717   -1.9615   -0.1139 C   0  0  0  0  0  0  0  0  0  0  0  0
    3.8313   -1.8238   -0.9829 C   0  0  0  0  0  0  0  0  0  0  0  0
    4.5181   -2.9409   -1.4385 C   0  0  0  0  0  0  0  0  0  0  0  0
    4.1809   -4.2222   -1.0548 C   0  0  0  0  0  0  0  0  0  0  0  0
    4.9371   -5.4323   -1.5298 C   0  0  0  0  0  0  0  0  0  0  0  0
    3.1196   -4.3574   -0.1881 C   0  0  0  0  0  0  0  0  0  0  0  0
    2.4297   -3.2422    0.2732 C   0  0  0  0  0  0  0  0  0  0  0  0
    2.9214    0.3833    0.5094 C   0  0  0  0  0  0  0  0  0  0  0  0
    3.0198    1.4060   -0.3821 C   0  0  0  0  0  0  0  0  0  0  0  0
    3.9806    2.4084   -0.2317 C   0  0  0  0  0  0  0  0  0  0  0  0
    4.8564    2.3866    0.8276 C   0  0  0  0  0  0  0  0  0  0  0  0
    5.8690    3.3381    1.0943 N   0  0  0  0  0  0  0  0  0  0  0  0
    6.8201    4.1204   -0.0626 S   0  0  0  0  0  0  0  0  0  0  0  0
    5.8553    5.1011   -1.1518 C   0  0  0  0  0  0  0  0  0  0  0  0
    7.5964    3.0796   -0.8561 O   0  0  0  0  0  0  0  0  0  0  0  0
    7.8782    4.9643    0.6328 O   0  0  0  0  0  0  0  0  0  0  0  0
    4.7601    1.3404    1.7479 C   0  0  0  0  0  0  0  0  0  0  0  0
    5.6207    1.2871    2.8133 F   0  0  0  0  0  0  0  0  0  0  0  0
    3.8244    0.3815    1.5844 C   0  0  0  0  0  0  0  0  0  0  0  0
   -4.8463   -4.4511   -1.3959 C   0  0  0  0  0  0  0  0  0  0  0  0
   -4.3759   -4.8973   -2.5912 F   0  0  0  0  0  0  0  0  0  0  0  0
   -6.1815   -4.1252   -1.4141 F   0  0  0  0  0  0  0  0  0  0  0  0
   -4.6110   -5.4504   -0.4658 F   0  0  0  0  0  0  0  0  0  0  0  0
   -7.6055    4.0493   -0.7201 H   0  0  0  0  0  0  0  0  0  0  0  0
   -7.2825    3.8943    1.0535 H   0  0  0  0  0  0  0  0  0  0  0  0
   -6.0607    4.6332   -0.1130 H   0  0  0  0  0  0  0  0  0  0  0  0
   -6.9207    1.7828   -0.5342 H   0  0  0  0  0  0  0  0  0  0  0  0
   -4.8343    2.6951    1.4385 H   0  0  0  0  0  0  0  0  0  0  0  0
   -6.4373    1.9601    1.8745 H   0  0  0  0  0  0  0  0  0  0  0  0
   -4.4122    0.3083    1.7243 H   0  0  0  0  0  0  0  0  0  0  0  0
   -6.0133   -0.1007    1.0944 H   0  0  0  0  0  0  0  0  0  0  0  0
   -5.7302    0.7545   -2.0347 H   0  0  0  0  0  0  0  0  0  0  0  0
   -3.9146    0.9885   -2.2506 H   0  0  0  0  0  0  0  0  0  0  0  0
   -5.2920    3.1541   -2.0392 H   0  0  0  0  0  0  0  0  0  0  0  0
   -4.1582    2.9258   -0.6248 H   0  0  0  0  0  0  0  0  0  0  0  0
   -2.3046   -4.4152   -0.6447 H   0  0  0  0  0  0  0  0  0  0  0  0
   -0.9555   -2.5090    0.1060 H   0  0  0  0  0  0  0  0  0  0  0  0
   -2.3099    0.6988    0.9686 H   0  0  0  0  0  0  0  0  0  0  0  0
   -1.7830    0.8697   -0.6989 H   0  0  0  0  0  0  0  0  0  0  0  0
   -0.1521    0.1494    1.5770 H   0  0  0  0  0  0  0  0  0  0  0  0
    1.7663   -1.0205    1.5406 H   0  0  0  0  0  0  0  0  0  0  0  0
    4.1290   -0.8228   -1.3091 H   0  0  0  0  0  0  0  0  0  0  0  0
    5.3479   -2.8084   -2.1120 H   0  0  0  0  0  0  0  0  0  0  0  0
    4.4835   -5.8532   -2.4330 H   0  0  0  0  0  0  0  0  0  0  0  0
    6.0204   -5.1541   -1.6931 H   0  0  0  0  0  0  0  0  0  0  0  0
    4.9326   -6.2187   -0.7635 H   0  0  0  0  0  0  0  0  0  0  0  0
    2.8186   -5.3406    0.1397 H   0  0  0  0  0  0  0  0  0  0  0  0
    1.5736   -3.3367    0.9653 H   0  0  0  0  0  0  0  0  0  0  0  0
    2.3313    1.4179   -1.2161 H   0  0  0  0  0  0  0  0  0  0  0  0
    4.0239    3.1859   -0.9577 H   0  0  0  0  0  0  0  0  0  0  0  0
    6.0394    3.5779    2.1232 H   0  0  0  0  0  0  0  0  0  0  0  0
    4.8391    5.3326   -0.7851 H   0  0  0  0  0  0  0  0  0  0  0  0
    6.3340    6.1049   -1.2860 H   0  0  0  0  0  0  0  0  0  0  0  0
    5.7463    4.5940   -2.1474 H   0  0  0  0  0  0  0  0  0  0  0  0
    3.7685   -0.4199    2.3121 H   0  0  0  0  0  0  0  0  0  0  0  0
  1  2  1  0
  2  3  1  0
  3  4  1  0
  4  5  1  0
  5  6  1  0
  6  7  1  0
  5  8  1  0
  8  9  2  0
  9 10  1  0
 10 11  2  0
 11 12  1  0
 12 13  2  0
 13 14  1  0
 14 15  1  0
 15 16  1  0
 16 17  2  0
 16 18  1  0
 18 19  1  0
 19 20  2  0
 20 21  1  0
 21 22  2  0
 22 23  1  0
 22 24  1  0
 24 25  2  0
 18 26  1  0
 26 27  2  0
 27 28  1  0
 28 29  2  0
 29 30  1  0
 30 31  1  0
 31 32  1  0
 31 33  2  0
 31 34  2  0
 29 35  1  0
 35 36  1  0
 35 37  2  0
 10 38  1  0
 38 39  1  0
 38 40  1  0
 38 41  1  0
  7  2  1  0
 13  8  1  0
 25 19  1  0
 37 26  1  0
  1 42  1  0
  1 43  1  0
  1 44  1  0
  2 45  1  0
  3 46  1  0
  3 47  1  0
  4 48  1  0
  4 49  1  0
  6 50  1  0
  6 51  1  0
  7 52  1  0
  7 53  1  0
 11 54  1  0
 12 55  1  0
 14 56  1  0
 14 57  1  0
 15 58  1  0
 18 59  1  0
 20 60  1  0
 21 61  1  0
 23 62  1  0
 23 63  1  0
 23 64  1  0
 24 65  1  0
 25 66  1  0
 27 67  1  0
 28 68  1  0
 30 69  1  0
 32 70  1  0
 32 71  1  0
 32 72  1  0
 37 73  1  0
M  END
$$$$
[H]OC(=O)c1c([H])c([H])c([H])c(-c2nc([H])c3nc([H])c(Br)c(N([H])C4([H])C([H])([H])C4([H])[H])c3c2[H])c1[H]
     RDKit          3D

 38 41  0  0  0  0  0  0  0  0999 V2000
    5.8066   -0.6632    1.8447 O   0  0  0  0  0  0  0  0  0  0  0  0
    5.7261    0.3676    0.9237 C   0  0  0  0  0  0  0  0  0  0  0  0
    6.7331    1.0706    0.6104 O   0  0  0  0  0  0  0  0  0  0  0  0
    4.4220    0.6362    0.3032 C   0  0  0  0  0  0  0  0  0  0  0  0
    4.3236    1.6584   -0.6157 C   0  0  0  0  0  0  0  0  0  0  0  0
    3.1027    1.9042   -1.1917 C   0  0  0  0  0  0  0  0  0  0  0  0
    2.0032    1.1594   -0.8694 C   0  0  0  0  0  0  0  0  0  0  0  0
    2.0706    0.1396    0.0382 C   0  0  0  0  0  0  0  0  0  0  0  0
    3.3227   -0.1081    0.6250 C   0  0  0  0  0  0  0  0  0  0  0  0
    0.9164   -0.6614    0.3930 C   0  0  0  0  0  0  0  0  0  0  0  0
   -0.3155   -0.4705   -0.1386 C   0  0  0  0  0  0  0  0  0  0  0  0
   -1.4074   -1.2676    0.2316 C   0  0  0  0  0  0  0  0  0  0  0  0
   -2.6562   -1.0669   -0.3158 C   0  0  0  0  0  0  0  0  0  0  0  0
   -2.9081   -0.0712   -1.2712 N   0  0  0  0  0  0  0  0  0  0  0  0
   -3.2136    1.3031   -1.0347 C   0  0  0  0  0  0  0  0  0  0  0  0
   -4.3458    1.8059   -0.2538 C   0  0  0  0  0  0  0  0  0  0  0  0
   -2.8987    1.9656    0.2607 C   0  0  0  0  0  0  0  0  0  0  0  0
   -3.6571   -1.9050    0.1129 C   0  0  0  0  0  0  0  0  0  0  0  0
   -5.4347   -1.7954   -0.5556 Br  0  0  0  0  0  0  0  0  0  0  0  0
   -3.4104   -2.9038    1.0557 C   0  0  0  0  0  0  0  0  0  0  0  0
   -2.1807   -3.0565    1.5565 N   0  0  0  0  0  0  0  0  0  0  0  0
   -1.1551   -2.2518    1.1630 C   0  0  0  0  0  0  0  0  0  0  0  0
    0.0940   -2.4482    1.7046 C   0  0  0  0  0  0  0  0  0  0  0  0
    1.0822   -1.6471    1.3003 N   0  0  0  0  0  0  0  0  0  0  0  0
    6.4511   -0.5686    2.6099 H   0  0  0  0  0  0  0  0  0  0  0  0
    5.2066    2.2320   -0.8532 H   0  0  0  0  0  0  0  0  0  0  0  0
    3.0070    2.7015   -1.9140 H   0  0  0  0  0  0  0  0  0  0  0  0
    1.0714    1.3864   -1.3433 H   0  0  0  0  0  0  0  0  0  0  0  0
    3.3828   -0.9213    1.3507 H   0  0  0  0  0  0  0  0  0  0  0  0
   -0.4951    0.2922   -0.8590 H   0  0  0  0  0  0  0  0  0  0  0  0
   -2.8629   -0.4022   -2.2896 H   0  0  0  0  0  0  0  0  0  0  0  0
   -2.9556    1.9675   -1.9230 H   0  0  0  0  0  0  0  0  0  0  0  0
   -4.8612    2.7676   -0.5632 H   0  0  0  0  0  0  0  0  0  0  0  0
   -4.9600    1.2483    0.4491 H   0  0  0  0  0  0  0  0  0  0  0  0
   -2.5417    3.0115    0.2913 H   0  0  0  0  0  0  0  0  0  0  0  0
   -2.5803    1.3718    1.1318 H   0  0  0  0  0  0  0  0  0  0  0  0
   -4.1905   -3.5591    1.3925 H   0  0  0  0  0  0  0  0  0  0  0  0
    0.3082   -3.2216    2.4413 H   0  0  0  0  0  0  0  0  0  0  0  0
  1  2  1  0
  2  3  2  0
  2  4  1  0
  4  5  2  0
  5  6  1  0
  6  7  2  0
  7  8  1  0
  8  9  2  0
  8 10  1  0
 10 11  2  0
 11 12  1  0
 12 13  2  0
 13 14  1  0
 14 15  1  0
 15 16  1  0
 16 17  1  0
 13 18  1  0
 18 19  1  0
 18 20  2  0
 20 21  1  0
 21 22  2  0
 22 23  1  0
 23 24  2  0
  9  4  1  0
 24 10  1  0
 22 12  1  0
 17 15  1  0
  1 25  1  0
  5 26  1  0
  6 27  1  0
  7 28  1  0
  9 29  1  0
 11 30  1  0
 14 31  1  0
 15 32  1  0
 16 33  1  0
 16 34  1  0
 17 35  1  0
 17 36  1  0
 20 37  1  0
 23 38  1  0
M  END
$$$$
[H]C#C[C@]1(O[H])[C@@]2(C([H])([H])[H])C([H])([H])C([H])([H])C([H])([H])C3([H])C2([H])C([H])([H])C([H])([H])[C@]1([H])[C@]([H])(C([H])([H])[H])[C@]([H])(c1c([H])c([H])c(OC([H])([H])C([H])([H])[H])c([H])c1[H])C1=C2C(=C([H])C(=O)C([H])([H])C2([H])[H])C([H])([H])C([H])([H])[C@]13[H]
     RDKit          3D

 79 84  0  0  0  0  0  0  0  0999 V2000
    8.4015   -1.5959    0.7768 C   0  0  0  0  0  0  0  0  0  0  0  0
    7.1814   -1.0392    0.0835 C   0  0  0  0  0  0  0  0  0  0  0  0
    6.0630   -1.4129    0.8278 O   0  0  0  0  0  0  0  0  0  0  0  0
    4.7591   -1.0723    0.4845 C   0  0  0  0  0  0  0  0  0  0  0  0
    3.6729   -1.4536    1.2374 C   0  0  0  0  0  0  0  0  0  0  0  0
    2.3947   -1.0943    0.8614 C   0  0  0  0  0  0  0  0  0  0  0  0
    2.0835   -0.3517   -0.2531 C   0  0  0  0  0  0  0  0  0  0  0  0
    3.2190    0.0037   -0.9732 C   0  0  0  0  0  0  0  0  0  0  0  0
    4.5094   -0.3353   -0.6310 C   0  0  0  0  0  0  0  0  0  0  0  0
    0.6778    0.0378   -0.6376 C   0  0  1  0  0  0  0  0  0  0  0  0
   -0.0673   -0.9830   -1.4606 C   0  0  1  0  0  0  0  0  0  0  0  0
    1.1047   -1.7831   -2.1144 C   0  0  0  0  0  0  0  0  0  0  0  0
   -1.0682   -1.9272   -1.1118 C   0  0  1  0  0  0  0  0  0  0  0  0
   -0.9243   -2.6806    0.1825 C   0  0  0  0  0  0  0  0  0  0  0  0
   -1.4412   -1.5815    1.0958 C   0  0  0  0  0  0  0  0  0  0  0  0
   -2.0234   -0.4092    0.5211 C   0  0  0  0  0  0  0  0  0  0  0  0
   -2.0500    0.6178    1.6098 C   0  0  0  0  0  0  0  0  0  0  0  0
   -2.7444   -0.0821    2.6688 C   0  0  0  0  0  0  0  0  0  0  0  0
   -4.1222   -0.4975    2.1323 C   0  0  0  0  0  0  0  0  0  0  0  0
   -4.1166   -1.3960    0.9072 C   0  0  0  0  0  0  0  0  0  0  0  0
   -3.2656   -0.9129   -0.1458 C   0  0  1  0  0  0  0  0  0  0  0  0
   -4.0354    0.1885   -0.9016 C   0  0  0  0  0  0  0  0  0  0  0  0
   -2.5881   -1.7322   -1.1882 C   0  0  2  0  0  0  0  0  0  0  0  0
   -3.1679   -3.0205   -1.0821 O   0  0  0  0  0  0  0  0  0  0  0  0
   -2.8558   -1.2678   -2.5495 C   0  0  0  0  0  0  0  0  0  0  0  0
   -3.0719   -0.8721   -3.6754 C   0  0  0  0  0  0  0  0  0  0  0  0
   -0.5490    0.8479    1.6169 C   0  0  2  0  0  0  0  0  0  0  0  0
   -0.3708    1.9971    2.5382 C   0  0  0  0  0  0  0  0  0  0  0  0
   -0.6780    3.3411    2.0685 C   0  0  0  0  0  0  0  0  0  0  0  0
   -0.8485    3.3004    0.6116 C   0  0  0  0  0  0  0  0  0  0  0  0
   -1.6689    4.2298    0.0422 C   0  0  0  0  0  0  0  0  0  0  0  0
   -1.7466    4.0919   -1.4134 C   0  0  0  0  0  0  0  0  0  0  0  0
   -2.8496    4.1835   -1.9746 O   0  0  0  0  0  0  0  0  0  0  0  0
   -0.4523    3.8444   -2.1516 C   0  0  0  0  0  0  0  0  0  0  0  0
    0.1953    2.6479   -1.5878 C   0  0  0  0  0  0  0  0  0  0  0  0
   -0.2011    2.2843   -0.2027 C   0  0  0  0  0  0  0  0  0  0  0  0
    0.0177    1.0075    0.2370 C   0  0  0  0  0  0  0  0  0  0  0  0
    8.6725   -0.9049    1.6186 H   0  0  0  0  0  0  0  0  0  0  0  0
    8.2219   -2.6164    1.1434 H   0  0  0  0  0  0  0  0  0  0  0  0
    9.2242   -1.6245    0.0362 H   0  0  0  0  0  0  0  0  0  0  0  0
    7.2216    0.0837    0.0671 H   0  0  0  0  0  0  0  0  0  0  0  0
    7.0608   -1.4395   -0.9471 H   0  0  0  0  0  0  0  0  0  0  0  0
    3.8714   -2.0429    2.1312 H   0  0  0  0  0  0  0  0  0  0  0  0
    1.6404   -1.4447    1.5123 H   0  0  0  0  0  0  0  0  0  0  0  0
    3.0711    0.6071   -1.8940 H   0  0  0  0  0  0  0  0  0  0  0  0
    5.3288   -0.0105   -1.2571 H   0  0  0  0  0  0  0  0  0  0  0  0
    0.9732    0.6369   -1.5434 H   0  0  0  0  0  0  0  0  0  0  0  0
   -0.4971   -0.5411   -2.4342 H   0  0  0  0  0  0  0  0  0  0  0  0
    1.6650   -1.1600   -2.8007 H   0  0  0  0  0  0  0  0  0  0  0  0
    1.6523   -2.3527   -1.3779 H   0  0  0  0  0  0  0  0  0  0  0  0
    0.5642   -2.5372   -2.7545 H   0  0  0  0  0  0  0  0  0  0  0  0
   -0.9973   -2.7967   -1.8726 H   0  0  0  0  0  0  0  0  0  0  0  0
   -1.6124   -3.5596    0.1148 H   0  0  0  0  0  0  0  0  0  0  0  0
    0.0532   -3.0731    0.4032 H   0  0  0  0  0  0  0  0  0  0  0  0
   -2.2398   -2.1628    1.6641 H   0  0  0  0  0  0  0  0  0  0  0  0
   -0.6802   -1.5614    1.8850 H   0  0  0  0  0  0  0  0  0  0  0  0
   -1.8122    0.2644   -0.2505 H   0  0  0  0  0  0  0  0  0  0  0  0
   -2.6261    1.5392    1.3723 H   0  0  0  0  0  0  0  0  0  0  0  0
   -3.0260    0.6847    3.4575 H   0  0  0  0  0  0  0  0  0  0  0  0
   -2.2408   -0.8649    3.2260 H   0  0  0  0  0  0  0  0  0  0  0  0
   -4.5718   -1.1071    2.9562 H   0  0  0  0  0  0  0  0  0  0  0  0
   -4.7731    0.3894    2.0097 H   0  0  0  0  0  0  0  0  0  0  0  0
   -5.2016   -1.2808    0.5573 H   0  0  0  0  0  0  0  0  0  0  0  0
   -4.1248   -2.4849    1.1580 H   0  0  0  0  0  0  0  0  0  0  0  0
   -4.6273    0.7215   -0.1590 H   0  0  0  0  0  0  0  0  0  0  0  0
   -3.3242    0.7957   -1.4699 H   0  0  0  0  0  0  0  0  0  0  0  0
   -4.7432   -0.3907   -1.5627 H   0  0  0  0  0  0  0  0  0  0  0  0
   -2.6706   -3.5949   -1.7266 H   0  0  0  0  0  0  0  0  0  0  0  0
   -3.2636   -0.5451   -4.6639 H   0  0  0  0  0  0  0  0  0  0  0  0
   -0.0030    0.0939    2.2124 H   0  0  0  0  0  0  0  0  0  0  0  0
    0.6654    1.9317    3.0061 H   0  0  0  0  0  0  0  0  0  0  0  0
   -1.0086    1.7699    3.4740 H   0  0  0  0  0  0  0  0  0  0  0  0
    0.1376    4.0625    2.3657 H   0  0  0  0  0  0  0  0  0  0  0  0
   -1.6497    3.6706    2.5234 H   0  0  0  0  0  0  0  0  0  0  0  0
   -2.1640    4.9283    0.6442 H   0  0  0  0  0  0  0  0  0  0  0  0
    0.1316    4.7810   -2.0613 H   0  0  0  0  0  0  0  0  0  0  0  0
   -0.6767    3.6711   -3.2330 H   0  0  0  0  0  0  0  0  0  0  0  0
    1.2710    2.5537   -1.7828 H   0  0  0  0  0  0  0  0  0  0  0  0
   -0.2647    1.7884   -2.1963 H   0  0  0  0  0  0  0  0  0  0  0  0
  1  2  1  0
  2  3  1  0
  3  4  1  0
  4  5  2  0
  5  6  1  0
  6  7  2  0
  7  8  1  0
  8  9  2  0
  7 10  1  0
 10 11  1  0
 11 12  1  0
 11 13  1  0
 13 14  1  0
 14 15  1  0
 15 16  1  0
 16 17  1  0
 17 18  1  0
 18 19  1  0
 19 20  1  0
 20 21  1  0
 21 22  1  6
 21 23  1  0
 23 24  1  0
 23 25  1  6
 25 26  3  0
 17 27  1  0
 27 28  1  0
 28 29  1  0
 29 30  1  0
 30 31  2  0
 31 32  1  0
 32 33  2  0
 32 34  1  0
 34 35  1  0
 35 36  1  0
 36 37  2  0
  9  4  1  0
 37 10  1  0
 23 13  1  0
 37 27  1  0
 21 16  1  0
 36 30  1  0
  1 38  1  0
  1 39  1  0
  1 40  1  0
  2 41  1  0
  2 42  1  0
  5 43  1  0
  6 44  1  0
  8 45  1  0
  9 46  1  0
 10 47  1  6
 11 48  1  6
 12 49  1  0
 12 50  1  0
 12 51  1  0
 13 52  1  6
 14 53  1  0
 14 54  1  0
 15 55  1  0
 15 56  1  0
 16 57  1  0
 17 58  1  0
 18 59  1  0
 18 60  1  0
 19 61  1  0
 19 62  1  0
 20 63  1  0
 20 64  1  0
 22 65  1  0
 22 66  1  0
 22 67  1  0
 24 68  1  0
 26 69  1  0
 27 70  1  1
 28 71  1  0
 28 72  1  0
 29 73  1  0
 29 74  1  0
 31 75  1  0
 34 76  1  0
 34 77  1  0
 35 78  1  0
 35 79  1  0
M  END
$$$$
[H]C1=C2N(c3c([H])c([H])nc(Cl)c3C([H])([H])[H])C([H])(C([H])([H])C1([H])[H])C([H])([H])C([H])(N([H])C1([H])SC(C([H])([H])C([H])([H])[H])(C([H])([H])C([H])([H])[H])c3c([H])c([H])c([H])c([H])c31)C2([H])[H]
     RDKit          3D

 63 67  0  0  0  0  0  0  0  0999 V2000
   -4.2683    2.4349    1.3028 C   0  0  0  0  0  0  0  0  0  0  0  0
   -3.9976    1.0114    1.7281 C   0  0  0  0  0  0  0  0  0  0  0  0
   -3.6326    0.2192    0.5202 C   0  0  0  0  0  0  0  0  0  0  0  0
   -4.7047    0.1884   -0.5336 C   0  0  0  0  0  0  0  0  0  0  0  0
   -5.9929   -0.4139   -0.0256 C   0  0  0  0  0  0  0  0  0  0  0  0
   -2.1149    0.8797   -0.2751 S   0  0  0  0  0  0  0  0  0  0  0  0
   -1.5082   -0.7125   -0.8830 C   0  0  0  0  0  0  0  0  0  0  0  0
   -0.1182   -0.9127   -0.8668 N   0  0  0  0  0  0  0  0  0  0  0  0
    0.7676   -0.1057   -1.5474 C   0  0  0  0  0  0  0  0  0  0  0  0
    0.7672    1.3460   -0.8601 C   0  0  0  0  0  0  0  0  0  0  0  0
    2.2012    1.4604   -1.0809 C   0  0  0  0  0  0  0  0  0  0  0  0
    2.5026    1.9404   -2.2914 C   0  0  0  0  0  0  0  0  0  0  0  0
    4.0138    1.9861   -2.5095 C   0  0  0  0  0  0  0  0  0  0  0  0
    4.2979    0.4381   -2.4074 C   0  0  0  0  0  0  0  0  0  0  0  0
    3.4328   -0.2583   -1.3497 C   0  0  0  0  0  0  0  0  0  0  0  0
    2.0945   -0.6697   -1.8318 C   0  0  0  0  0  0  0  0  0  0  0  0
    3.2008    0.9044   -0.3211 N   0  0  0  0  0  0  0  0  0  0  0  0
    3.9633    0.9384    0.8238 C   0  0  0  0  0  0  0  0  0  0  0  0
    5.1000    1.6861    1.0565 C   0  0  0  0  0  0  0  0  0  0  0  0
    5.8561    1.6925    2.1995 C   0  0  0  0  0  0  0  0  0  0  0  0
    5.4602    0.8983    3.1940 N   0  0  0  0  0  0  0  0  0  0  0  0
    4.3596    0.1366    3.0445 C   0  0  0  0  0  0  0  0  0  0  0  0
    3.8483   -0.9173    4.3887 Cl  0  0  0  0  0  0  0  0  0  0  0  0
    3.5874    0.1154    1.9057 C   0  0  0  0  0  0  0  0  0  0  0  0
    2.4032   -0.7730    1.8588 C   0  0  0  0  0  0  0  0  0  0  0  0
   -2.1526   -1.6386    0.1121 C   0  0  0  0  0  0  0  0  0  0  0  0
   -1.7125   -2.9570    0.3463 C   0  0  0  0  0  0  0  0  0  0  0  0
   -2.3141   -3.7866    1.2569 C   0  0  0  0  0  0  0  0  0  0  0  0
   -3.3791   -3.3004    1.9542 C   0  0  0  0  0  0  0  0  0  0  0  0
   -3.8041   -2.0208    1.7246 C   0  0  0  0  0  0  0  0  0  0  0  0
   -3.1912   -1.1615    0.7907 C   0  0  0  0  0  0  0  0  0  0  0  0
   -4.0470    3.1397    2.1298 H   0  0  0  0  0  0  0  0  0  0  0  0
   -5.3690    2.5505    1.0966 H   0  0  0  0  0  0  0  0  0  0  0  0
   -3.6675    2.7181    0.4278 H   0  0  0  0  0  0  0  0  0  0  0  0
   -3.1178    1.0376    2.4107 H   0  0  0  0  0  0  0  0  0  0  0  0
   -4.8112    0.5451    2.2806 H   0  0  0  0  0  0  0  0  0  0  0  0
   -4.8419    1.1724   -0.9912 H   0  0  0  0  0  0  0  0  0  0  0  0
   -4.3471   -0.4955   -1.3462 H   0  0  0  0  0  0  0  0  0  0  0  0
   -6.3618    0.0361    0.8980 H   0  0  0  0  0  0  0  0  0  0  0  0
   -6.7551   -0.3003   -0.8460 H   0  0  0  0  0  0  0  0  0  0  0  0
   -5.8958   -1.5056    0.1454 H   0  0  0  0  0  0  0  0  0  0  0  0
   -1.9540   -0.9135   -1.9044 H   0  0  0  0  0  0  0  0  0  0  0  0
    0.2194   -1.6437   -0.2350 H   0  0  0  0  0  0  0  0  0  0  0  0
    0.3039    0.1434   -2.5687 H   0  0  0  0  0  0  0  0  0  0  0  0
    0.3570    1.2967    0.1184 H   0  0  0  0  0  0  0  0  0  0  0  0
    0.1220    1.9353   -1.5168 H   0  0  0  0  0  0  0  0  0  0  0  0
    1.8026    2.2577   -3.0299 H   0  0  0  0  0  0  0  0  0  0  0  0
    4.1740    2.2600   -3.5756 H   0  0  0  0  0  0  0  0  0  0  0  0
    4.5352    2.5638   -1.7994 H   0  0  0  0  0  0  0  0  0  0  0  0
    3.9989    0.0488   -3.4006 H   0  0  0  0  0  0  0  0  0  0  0  0
    5.3675    0.2873   -2.2480 H   0  0  0  0  0  0  0  0  0  0  0  0
    3.9893   -1.0263   -0.8844 H   0  0  0  0  0  0  0  0  0  0  0  0
    2.2162   -0.6915   -2.9805 H   0  0  0  0  0  0  0  0  0  0  0  0
    1.9566   -1.8108   -1.6663 H   0  0  0  0  0  0  0  0  0  0  0  0
    5.4256    2.3458    0.2369 H   0  0  0  0  0  0  0  0  0  0  0  0
    6.7361    2.3316    2.2575 H   0  0  0  0  0  0  0  0  0  0  0  0
    2.3132   -1.3021    2.8263 H   0  0  0  0  0  0  0  0  0  0  0  0
    2.5414   -1.6109    1.1124 H   0  0  0  0  0  0  0  0  0  0  0  0
    1.4438   -0.2395    1.7305 H   0  0  0  0  0  0  0  0  0  0  0  0
   -0.8677   -3.3559   -0.2027 H   0  0  0  0  0  0  0  0  0  0  0  0
   -1.9264   -4.7812    1.3848 H   0  0  0  0  0  0  0  0  0  0  0  0
   -3.8566   -3.9619    2.6783 H   0  0  0  0  0  0  0  0  0  0  0  0
   -4.6495   -1.6793    2.2981 H   0  0  0  0  0  0  0  0  0  0  0  0
  1  2  1  0
  2  3  1  0
  3  4  1  0
  4  5  1  0
  3  6  1  0
  6  7  1  0
  7  8  1  0
  8  9  1  0
  9 10  1  0
 10 11  1  0
 11 12  2  0
 12 13  1  0
 13 14  1  0
 14 15  1  0
 15 16  1  0
 15 17  1  0
 17 18  1  0
 18 19  2  0
 19 20  1  0
 20 21  2  0
 21 22  1  0
 22 23  1  0
 22 24  2  0
 24 25  1  0
  7 26  1  0
 26 27  2  0
 27 28  1  0
 28 29  2  0
 29 30  1  0
 30 31  2  0
 31  3  1  0
 16  9  1  0
 24 18  1  0
 31 26  1  0
 17 11  1  0
  1 32  1  0
  1 33  1  0
  1 34  1  0
  2 35  1  0
  2 36  1  0
  4 37  1  0
  4 38  1  0
  5 39  1  0
  5 40  1  0
  5 41  1  0
  7 42  1  0
  8 43  1  0
  9 44  1  0
 10 45  1  0
 10 46  1  0
 12 47  1  0
 13 48  1  0
 13 49  1  0
 14 50  1  0
 14 51  1  0
 15 52  1  0
 16 53  1  0
 16 54  1  0
 19 55  1  0
 20 56  1  0
 25 57  1  0
 25 58  1  0
 25 59  1  0
 27 60  1  0
 28 61  1  0
 29 62  1  0
 30 63  1  0
M  END
$$$$
[H]OC(=O)c1c([H])c(-n2c([H])c([H])c3c([H])nc(N([H])c4c([H])c([H])c(N5C([H])([H])C([H])([H])N(C([H])([H])[H])C([H])([H])C5([H])[H])c([H])c4OC([H])([H])[H])nc32)c(C([H])([H])[H])c([H])c1C([H])([H])[H]
     RDKit          3D

 66 70  0  0  0  0  0  0  0  0999 V2000
    1.5215   -3.3465    1.6643 C   0  0  0  0  0  0  0  0  0  0  0  0
    1.0190   -2.1496    1.1179 O   0  0  0  0  0  0  0  0  0  0  0  0
    1.8762   -1.1532    0.6826 C   0  0  0  0  0  0  0  0  0  0  0  0
    3.2301   -1.3327    0.7838 C   0  0  0  0  0  0  0  0  0  0  0  0
    4.1307   -0.3756    0.3666 C   0  0  0  0  0  0  0  0  0  0  0  0
    3.5970    0.7795   -0.1610 C   0  0  0  0  0  0  0  0  0  0  0  0
    2.2114    0.9770   -0.2707 C   0  0  0  0  0  0  0  0  0  0  0  0
    1.3256    0.0273    0.1431 C   0  0  0  0  0  0  0  0  0  0  0  0
   -0.0690    0.1669    0.0682 N   0  0  0  0  0  0  0  0  0  0  0  0
   -0.8337    1.2244   -0.4675 C   0  0  0  0  0  0  0  0  0  0  0  0
   -0.3410    2.3309   -1.0277 N   0  0  0  0  0  0  0  0  0  0  0  0
   -1.0799    3.3330   -1.5403 C   0  0  0  0  0  0  0  0  0  0  0  0
   -2.4452    3.2086   -1.4828 C   0  0  0  0  0  0  0  0  0  0  0  0
   -3.4465    4.0397   -1.9117 C   0  0  0  0  0  0  0  0  0  0  0  0
   -4.6266    3.3808   -1.5827 C   0  0  0  0  0  0  0  0  0  0  0  0
   -4.3755    2.2069   -0.9832 N   0  0  0  0  0  0  0  0  0  0  0  0
   -5.2815    1.2300   -0.4858 C   0  0  0  0  0  0  0  0  0  0  0  0
   -6.0489    1.4235    0.6338 C   0  0  0  0  0  0  0  0  0  0  0  0
   -6.9372    0.4395    1.1044 C   0  0  0  0  0  0  0  0  0  0  0  0
   -7.0679   -0.7617    0.4521 C   0  0  0  0  0  0  0  0  0  0  0  0
   -7.9965   -1.8401    0.9074 C   0  0  0  0  0  0  0  0  0  0  0  0
   -6.2843   -0.9548   -0.6889 C   0  0  0  0  0  0  0  0  0  0  0  0
   -5.4230    0.0240   -1.1282 C   0  0  0  0  0  0  0  0  0  0  0  0
   -4.6143   -0.2342   -2.3424 C   0  0  0  0  0  0  0  0  0  0  0  0
   -7.7111    0.7251    2.2982 C   0  0  0  0  0  0  0  0  0  0  0  0
   -8.6055   -0.1390    2.8638 O   0  0  0  0  0  0  0  0  0  0  0  0
   -7.5525    1.8423    2.8567 O   0  0  0  0  0  0  0  0  0  0  0  0
   -3.0157    2.0936   -0.9179 C   0  0  0  0  0  0  0  0  0  0  0  0
   -2.1961    1.1532   -0.4365 N   0  0  0  0  0  0  0  0  0  0  0  0
    5.5322   -0.5578    0.4605 N   0  0  0  0  0  0  0  0  0  0  0  0
    6.3954    0.5607    0.1402 C   0  0  0  0  0  0  0  0  0  0  0  0
    7.8152    0.2998    0.6196 C   0  0  0  0  0  0  0  0  0  0  0  0
    8.2459   -0.9347    0.0479 N   0  0  0  0  0  0  0  0  0  0  0  0
    8.6097   -0.8181   -1.3397 C   0  0  0  0  0  0  0  0  0  0  0  0
    7.4703   -2.0847    0.3757 C   0  0  0  0  0  0  0  0  0  0  0  0
    6.0744   -1.8124    0.8554 C   0  0  0  0  0  0  0  0  0  0  0  0
    2.3099   -3.8174    1.0359 H   0  0  0  0  0  0  0  0  0  0  0  0
    1.8844   -3.1177    2.6963 H   0  0  0  0  0  0  0  0  0  0  0  0
    0.7328   -4.1159    1.7921 H   0  0  0  0  0  0  0  0  0  0  0  0
    3.6196   -2.2677    1.2148 H   0  0  0  0  0  0  0  0  0  0  0  0
    4.3029    1.5362   -0.4939 H   0  0  0  0  0  0  0  0  0  0  0  0
    1.9468    1.9260   -0.6978 H   0  0  0  0  0  0  0  0  0  0  0  0
   -0.6631   -0.6292    0.4704 H   0  0  0  0  0  0  0  0  0  0  0  0
   -0.5504    4.1725   -1.9631 H   0  0  0  0  0  0  0  0  0  0  0  0
   -3.3249    5.0082   -2.4049 H   0  0  0  0  0  0  0  0  0  0  0  0
   -5.6183    3.7513   -1.7783 H   0  0  0  0  0  0  0  0  0  0  0  0
   -5.9487    2.3811    1.1587 H   0  0  0  0  0  0  0  0  0  0  0  0
   -7.9164   -2.6827    0.1727 H   0  0  0  0  0  0  0  0  0  0  0  0
   -9.0326   -1.4481    0.8953 H   0  0  0  0  0  0  0  0  0  0  0  0
   -7.7374   -2.1653    1.9120 H   0  0  0  0  0  0  0  0  0  0  0  0
   -6.3964   -1.9069   -1.1963 H   0  0  0  0  0  0  0  0  0  0  0  0
   -5.2588   -0.8590   -3.0229 H   0  0  0  0  0  0  0  0  0  0  0  0
   -3.7805   -0.9057   -2.0522 H   0  0  0  0  0  0  0  0  0  0  0  0
   -4.2364    0.6617   -2.8354 H   0  0  0  0  0  0  0  0  0  0  0  0
   -9.4287    0.2134    3.3312 H   0  0  0  0  0  0  0  0  0  0  0  0
    6.0525    1.4741    0.6879 H   0  0  0  0  0  0  0  0  0  0  0  0
    6.4266    0.7806   -0.9322 H   0  0  0  0  0  0  0  0  0  0  0  0
    8.4643    1.1040    0.2506 H   0  0  0  0  0  0  0  0  0  0  0  0
    7.8695    0.2232    1.7182 H   0  0  0  0  0  0  0  0  0  0  0  0
    7.8379   -1.2243   -1.9980 H   0  0  0  0  0  0  0  0  0  0  0  0
    8.8245    0.2630   -1.5237 H   0  0  0  0  0  0  0  0  0  0  0  0
    9.5833   -1.3502   -1.4767 H   0  0  0  0  0  0  0  0  0  0  0  0
    8.0409   -2.6836    1.1422 H   0  0  0  0  0  0  0  0  0  0  0  0
    7.4750   -2.7546   -0.5355 H   0  0  0  0  0  0  0  0  0  0  0  0
    5.4326   -2.6212    0.4104 H   0  0  0  0  0  0  0  0  0  0  0  0
    5.9865   -1.9173    1.9653 H   0  0  0  0  0  0  0  0  0  0  0  0
  1  2  1  0
  2  3  1  0
  3  4  2  0
  4  5  1  0
  5  6  2  0
  6  7  1  0
  7  8  2  0
  8  9  1  0
  9 10  1  0
 10 11  2  0
 11 12  1  0
 12 13  2  0
 13 14  1  0
 14 15  2  0
 15 16  1  0
 16 17  1  0
 17 18  2  0
 18 19  1  0
 19 20  2  0
 20 21  1  0
 20 22  1  0
 22 23  2  0
 23 24  1  0
 19 25  1  0
 25 26  1  0
 25 27  2  0
 16 28  1  0
 28 29  2  0
  5 30  1  0
 30 31  1  0
 31 32  1  0
 32 33  1  0
 33 34  1  0
 33 35  1  0
 35 36  1  0
  8  3  1  0
 29 10  1  0
 36 30  1  0
 28 13  1  0
 23 17  1  0
  1 37  1  0
  1 38  1  0
  1 39  1  0
  4 40  1  0
  6 41  1  0
  7 42  1  0
  9 43  1  0
 12 44  1  0
 14 45  1  0
 15 46  1  0
 18 47  1  0
 21 48  1  0
 21 49  1  0
 21 50  1  0
 22 51  1  0
 24 52  1  0
 24 53  1  0
 24 54  1  0
 26 55  1  0
 31 56  1  0
 31 57  1  0
 32 58  1  0
 32 59  1  0
 34 60  1  0
 34 61  1  0
 34 62  1  0
 35 63  1  0
 35 64  1  0
 36 65  1  0
 36 66  1  0
M  END
$$$$
[H]c1c([H])c(Cl)c([H])c(C([H])([H])Oc2nc(OC([H])([H])C(=O)N([H])C([H])(C([H])([H])[H])C([H])([H])[H])nc(N([H])C([H])([H])C3([H])OC([H])([H])C([H])([H])C3([H])[H])n2)c1[H]
     RDKit          3D

 56 58  0  0  0  0  0  0  0  0999 V2000
    5.0603   -1.0216    2.0711 C   0  0  0  0  0  0  0  0  0  0  0  0
    4.5875   -2.4274    1.9981 C   0  0  0  0  0  0  0  0  0  0  0  0
    4.2168   -2.9087    3.3975 C   0  0  0  0  0  0  0  0  0  0  0  0
    3.4133   -2.6438    1.1866 N   0  0  0  0  0  0  0  0  0  0  0  0
    3.4312   -3.5802    0.1348 C   0  0  0  0  0  0  0  0  0  0  0  0
    4.4847   -4.2186   -0.0949 O   0  0  0  0  0  0  0  0  0  0  0  0
    2.2536   -3.8698   -0.7408 C   0  0  0  0  0  0  0  0  0  0  0  0
    1.1838   -3.2046   -0.4811 O   0  0  0  0  0  0  0  0  0  0  0  0
    0.2662   -2.3028   -0.2811 C   0  0  0  0  0  0  0  0  0  0  0  0
   -0.9831   -2.7128    0.1046 N   0  0  0  0  0  0  0  0  0  0  0  0
   -1.9608   -1.8319    0.3235 C   0  0  0  0  0  0  0  0  0  0  0  0
   -3.1893   -2.3454    0.7104 O   0  0  0  0  0  0  0  0  0  0  0  0
   -4.3473   -1.6275    0.9917 C   0  0  0  0  0  0  0  0  0  0  0  0
   -4.8159   -0.8319   -0.1579 C   0  0  0  0  0  0  0  0  0  0  0  0
   -4.7087    0.5316   -0.2353 C   0  0  0  0  0  0  0  0  0  0  0  0
   -5.1411    1.2827   -1.3110 C   0  0  0  0  0  0  0  0  0  0  0  0
   -5.7208    0.6532   -2.3857 C   0  0  0  0  0  0  0  0  0  0  0  0
   -5.8394   -0.7347   -2.3231 C   0  0  0  0  0  0  0  0  0  0  0  0
   -6.5740   -1.5580   -3.6818 Cl  0  0  0  0  0  0  0  0  0  0  0  0
   -5.4095   -1.4686   -1.2586 C   0  0  0  0  0  0  0  0  0  0  0  0
   -1.7119   -0.5377    0.1629 N   0  0  0  0  0  0  0  0  0  0  0  0
   -0.5079   -0.0434   -0.2158 C   0  0  0  0  0  0  0  0  0  0  0  0
   -0.2967    1.3547   -0.3656 N   0  0  0  0  0  0  0  0  0  0  0  0
    0.9848    1.8224   -0.7639 C   0  0  0  0  0  0  0  0  0  0  0  0
    1.1180    3.3046   -0.8516 C   0  0  0  0  0  0  0  0  0  0  0  0
    0.2367    3.9847   -1.8335 C   0  0  0  0  0  0  0  0  0  0  0  0
    0.4197    5.4540   -1.4241 C   0  0  0  0  0  0  0  0  0  0  0  0
    0.9604    5.3079   -0.0177 C   0  0  0  0  0  0  0  0  0  0  0  0
    0.8806    3.9634    0.3261 O   0  0  0  0  0  0  0  0  0  0  0  0
    0.4461   -0.9582   -0.4259 N   0  0  0  0  0  0  0  0  0  0  0  0
    6.1648   -0.9072    2.0742 H   0  0  0  0  0  0  0  0  0  0  0  0
    4.6550   -0.4318    1.2022 H   0  0  0  0  0  0  0  0  0  0  0  0
    4.6326   -0.5497    2.9787 H   0  0  0  0  0  0  0  0  0  0  0  0
    5.4039   -3.0928    1.6241 H   0  0  0  0  0  0  0  0  0  0  0  0
    3.5047   -2.1760    3.8087 H   0  0  0  0  0  0  0  0  0  0  0  0
    5.1070   -2.9130    4.0431 H   0  0  0  0  0  0  0  0  0  0  0  0
    3.7391   -3.9133    3.2976 H   0  0  0  0  0  0  0  0  0  0  0  0
    2.5735   -2.0921    1.4040 H   0  0  0  0  0  0  0  0  0  0  0  0
    2.5866   -3.8137   -1.8266 H   0  0  0  0  0  0  0  0  0  0  0  0
    2.0848   -4.9981   -0.5683 H   0  0  0  0  0  0  0  0  0  0  0  0
   -4.1774   -0.9896    1.8683 H   0  0  0  0  0  0  0  0  0  0  0  0
   -5.1265   -2.3965    1.2758 H   0  0  0  0  0  0  0  0  0  0  0  0
   -4.2605    1.0658    0.5879 H   0  0  0  0  0  0  0  0  0  0  0  0
   -5.0433    2.3602   -1.3454 H   0  0  0  0  0  0  0  0  0  0  0  0
   -6.0795    1.1724   -3.2518 H   0  0  0  0  0  0  0  0  0  0  0  0
   -5.5043   -2.5409   -1.2180 H   0  0  0  0  0  0  0  0  0  0  0  0
   -1.0747    1.9896   -0.1824 H   0  0  0  0  0  0  0  0  0  0  0  0
    1.2264    1.4034   -1.7649 H   0  0  0  0  0  0  0  0  0  0  0  0
    1.7577    1.4461   -0.0630 H   0  0  0  0  0  0  0  0  0  0  0  0
    2.1806    3.5173   -1.1485 H   0  0  0  0  0  0  0  0  0  0  0  0
   -0.8321    3.7715   -1.7161 H   0  0  0  0  0  0  0  0  0  0  0  0
    0.5972    3.8581   -2.8952 H   0  0  0  0  0  0  0  0  0  0  0  0
    1.2260    5.8759   -2.0702 H   0  0  0  0  0  0  0  0  0  0  0  0
   -0.5153    6.0068   -1.4958 H   0  0  0  0  0  0  0  0  0  0  0  0
    0.3863    5.9516    0.6925 H   0  0  0  0  0  0  0  0  0  0  0  0
    2.0498    5.5644    0.0179 H   0  0  0  0  0  0  0  0  0  0  0  0
  1  2  1  0
  2  3  1  0
  2  4  1  0
  4  5  1  0
  5  6  2  0
  5  7  1  0
  7  8  1  0
  8  9  1  0
  9 10  2  0
 10 11  1  0
 11 12  1  0
 12 13  1  0
 13 14  1  0
 14 15  2  0
 15 16  1  0
 16 17  2  0
 17 18  1  0
 18 19  1  0
 18 20  2  0
 11 21  2  0
 21 22  1  0
 22 23  1  0
 23 24  1  0
 24 25  1  0
 25 26  1  0
 26 27  1  0
 27 28  1  0
 28 29  1  0
 22 30  2  0
 30  9  1  0
 20 14  1  0
 29 25  1  0
  1 31  1  0
  1 32  1  0
  1 33  1  0
  2 34  1  0
  3 35  1  0
  3 36  1  0
  3 37  1  0
  4 38  1  0
  7 39  1  0
  7 40  1  0
 13 41  1  0
 13 42  1  0
 15 43  1  0
 16 44  1  0
 17 45  1  0
 20 46  1  0
 23 47  1  0
 24 48  1  0
 24 49  1  0
 25 50  1  0
 26 51  1  0
 26 52  1  0
 27 53  1  0
 27 54  1  0
 28 55  1  0
 28 56  1  0
M  END
$$$$
