[H]c1nc([H])c(Cl)c(N([H])C(=O)N([H])c2c([H])c(-c3c([H])c([H])c([H])c(-c4c([H])c([H])c([H])c(C(=O)N([H])C([H])([H])C([H])([H])N5C([H])([H])C([H])([H])C([H])([H])C([H])([H])C5([H])[H])c4[H])c3[H])nn(C([H])([H])C([H])([H])[H])c2=O)c1Cl
     RDKit          3D

 77 81  0  0  0  0  0  0  0  0999 V2000
   -4.8239   -0.9311    4.7578 C   0  0  0  0  0  0  0  0  0  0  0  0
   -4.6372   -1.8500    3.5943 C   0  0  0  0  0  0  0  0  0  0  0  0
   -4.7380   -1.1155    2.3174 N   0  0  0  0  0  0  0  0  0  0  0  0
   -3.6443   -0.5763    1.8056 N   0  0  0  0  0  0  0  0  0  0  0  0
   -3.6550    0.1242    0.6629 C   0  0  0  0  0  0  0  0  0  0  0  0
   -4.8642    0.2767    0.0125 C   0  0  0  0  0  0  0  0  0  0  0  0
   -6.0502   -0.2776    0.5088 C   0  0  0  0  0  0  0  0  0  0  0  0
   -7.2811   -0.3123   -0.1062 N   0  0  0  0  0  0  0  0  0  0  0  0
   -7.7090    0.5846   -1.1723 C   0  0  0  0  0  0  0  0  0  0  0  0
   -6.8333    1.4469   -1.4702 O   0  0  0  0  0  0  0  0  0  0  0  0
   -8.8974    0.4549   -1.7425 N   0  0  0  0  0  0  0  0  0  0  0  0
  -10.1344    0.3830   -2.3981 C   0  0  0  0  0  0  0  0  0  0  0  0
  -10.2854   -0.4100   -3.5218 C   0  0  0  0  0  0  0  0  0  0  0  0
   -8.8741   -1.2530   -4.1472 Cl  0  0  0  0  0  0  0  0  0  0  0  0
  -11.4711   -0.5457   -4.1730 C   0  0  0  0  0  0  0  0  0  0  0  0
  -12.5793    0.1278   -3.7144 N   0  0  0  0  0  0  0  0  0  0  0  0
  -12.4578    0.9183   -2.6093 C   0  0  0  0  0  0  0  0  0  0  0  0
  -11.2681    1.0495   -1.9596 C   0  0  0  0  0  0  0  0  0  0  0  0
  -11.1438    2.0651   -0.5496 Cl  0  0  0  0  0  0  0  0  0  0  0  0
   -5.9165   -0.9957    1.7240 C   0  0  0  0  0  0  0  0  0  0  0  0
   -6.9597   -1.5154    2.2202 O   0  0  0  0  0  0  0  0  0  0  0  0
   -2.3861    0.6029    0.0670 C   0  0  0  0  0  0  0  0  0  0  0  0
   -2.2813    1.5343   -0.9100 C   0  0  0  0  0  0  0  0  0  0  0  0
   -1.0188    1.7927   -1.4556 C   0  0  0  0  0  0  0  0  0  0  0  0
    0.1118    1.1045   -1.0049 C   0  0  0  0  0  0  0  0  0  0  0  0
   -0.0272    0.1794   -0.0309 C   0  0  0  0  0  0  0  0  0  0  0  0
   -1.2551   -0.0794    0.5144 C   0  0  0  0  0  0  0  0  0  0  0  0
    1.0898   -0.6535    0.3978 C   0  0  0  0  0  0  0  0  0  0  0  0
    0.8358   -1.9456    0.8387 C   0  0  0  0  0  0  0  0  0  0  0  0
    1.8697   -2.7778    1.2239 C   0  0  0  0  0  0  0  0  0  0  0  0
    3.1625   -2.3712    1.1875 C   0  0  0  0  0  0  0  0  0  0  0  0
    3.4547   -1.0539    0.7402 C   0  0  0  0  0  0  0  0  0  0  0  0
    2.4135   -0.2492    0.3650 C   0  0  0  0  0  0  0  0  0  0  0  0
    4.8496   -0.6495    0.7344 C   0  0  0  0  0  0  0  0  0  0  0  0
    5.4884   -0.5570    1.8261 O   0  0  0  0  0  0  0  0  0  0  0  0
    5.5743   -0.3535   -0.4534 N   0  0  0  0  0  0  0  0  0  0  0  0
    6.9654    0.0249   -0.4392 C   0  0  0  0  0  0  0  0  0  0  0  0
    7.2899    1.2773    0.2850 C   0  0  0  0  0  0  0  0  0  0  0  0
    8.6964    1.5827    0.3108 N   0  0  0  0  0  0  0  0  0  0  0  0
    9.3191    1.9382   -0.8906 C   0  0  0  0  0  0  0  0  0  0  0  0
   10.1761    0.8844   -1.5204 C   0  0  0  0  0  0  0  0  0  0  0  0
   10.6254   -0.1828   -0.5580 C   0  0  0  0  0  0  0  0  0  0  0  0
   10.7248    0.3343    0.8342 C   0  0  0  0  0  0  0  0  0  0  0  0
    9.4213    0.8694    1.2890 C   0  0  0  0  0  0  0  0  0  0  0  0
   -3.8421   -0.4755    5.0864 H   0  0  0  0  0  0  0  0  0  0  0  0
   -5.5242   -0.1025    4.6007 H   0  0  0  0  0  0  0  0  0  0  0  0
   -5.2313   -1.5287    5.6066 H   0  0  0  0  0  0  0  0  0  0  0  0
   -3.6587   -2.3439    3.6775 H   0  0  0  0  0  0  0  0  0  0  0  0
   -5.3964   -2.6558    3.5546 H   0  0  0  0  0  0  0  0  0  0  0  0
   -4.8664    0.8220   -0.8933 H   0  0  0  0  0  0  0  0  0  0  0  0
   -7.9940   -1.0541    0.2017 H   0  0  0  0  0  0  0  0  0  0  0  0
   -8.6081    1.4901   -2.6123 H   0  0  0  0  0  0  0  0  0  0  0  0
  -11.6278   -1.1597   -5.0493 H   0  0  0  0  0  0  0  0  0  0  0  0
  -13.3845    1.4258   -2.3064 H   0  0  0  0  0  0  0  0  0  0  0  0
   -3.1776    2.0498   -1.2392 H   0  0  0  0  0  0  0  0  0  0  0  0
   -0.9643    2.5361   -2.2270 H   0  0  0  0  0  0  0  0  0  0  0  0
    1.0520    1.3503   -1.4643 H   0  0  0  0  0  0  0  0  0  0  0  0
   -1.3459   -0.8056    1.2993 H   0  0  0  0  0  0  0  0  0  0  0  0
   -0.1744   -2.3009    0.8789 H   0  0  0  0  0  0  0  0  0  0  0  0
    1.6751   -3.7921    1.5829 H   0  0  0  0  0  0  0  0  0  0  0  0
    4.0122   -2.9723    1.4709 H   0  0  0  0  0  0  0  0  0  0  0  0
    2.6478    0.7766    0.0224 H   0  0  0  0  0  0  0  0  0  0  0  0
    5.0891   -0.4202   -1.3702 H   0  0  0  0  0  0  0  0  0  0  0  0
    7.3536    0.1409   -1.4928 H   0  0  0  0  0  0  0  0  0  0  0  0
    7.5285   -0.8555   -0.0521 H   0  0  0  0  0  0  0  0  0  0  0  0
    6.9010    1.3088    1.3071 H   0  0  0  0  0  0  0  0  0  0  0  0
    6.7960    2.1599   -0.2314 H   0  0  0  0  0  0  0  0  0  0  0  0
    9.9416    2.8568   -0.7052 H   0  0  0  0  0  0  0  0  0  0  0  0
    8.5570    2.2422   -1.6358 H   0  0  0  0  0  0  0  0  0  0  0  0
    9.7306    0.3847   -2.4006 H   0  0  0  0  0  0  0  0  0  0  0  0
   11.1046    1.3916   -1.9016 H   0  0  0  0  0  0  0  0  0  0  0  0
   11.6418   -0.5825   -0.8448 H   0  0  0  0  0  0  0  0  0  0  0  0
    9.9540   -1.0567   -0.5733 H   0  0  0  0  0  0  0  0  0  0  0  0
   11.0359   -0.5158    1.5028 H   0  0  0  0  0  0  0  0  0  0  0  0
   11.5038    1.1215    0.9479 H   0  0  0  0  0  0  0  0  0  0  0  0
    8.7708    0.0737    1.7220 H   0  0  0  0  0  0  0  0  0  0  0  0
    9.6237    1.5908    2.1396 H   0  0  0  0  0  0  0  0  0  0  0  0
  1  2  1  0
  2  3  1  0
  3  4  1  0
  4  5  2  0
  5  6  1  0
  6  7  2  0
  7  8  1  0
  8  9  1  0
  9 10  2  0
  9 11  1  0
 11 12  1  0
 12 13  2  0
 13 14  1  0
 13 15  1  0
 15 16  2  0
 16 17  1  0
 17 18  2  0
 18 19  1  0
  7 20  1  0
 20 21  2  0
  5 22  1  0
 22 23  2  0
 23 24  1  0
 24 25  2  0
 25 26  1  0
 26 27  2  0
 26 28  1  0
 28 29  2  0
 29 30  1  0
 30 31  2  0
 31 32  1  0
 32 33  2  0
 32 34  1  0
 34 35  2  0
 34 36  1  0
 36 37  1  0
 37 38  1  0
 38 39  1  0
 39 40  1  0
 40 41  1  0
 41 42  1  0
 42 43  1  0
 43 44  1  0
 20  3  1  0
 27 22  1  0
 33 28  1  0
 44 39  1  0
 18 12  1  0
  1 45  1  0
  1 46  1  0
  1 47  1  0
  2 48  1  0
  2 49  1  0
  6 50  1  0
  8 51  1  0
 11 52  1  0
 15 53  1  0
 17 54  1  0
 23 55  1  0
 24 56  1  0
 25 57  1  0
 27 58  1  0
 29 59  1  0
 30 60  1  0
 31 61  1  0
 33 62  1  0
 36 63  1  0
 37 64  1  0
 37 65  1  0
 38 66  1  0
 38 67  1  0
 40 68  1  0
 40 69  1  0
 41 70  1  0
 41 71  1  0
 42 72  1  0
 42 73  1  0
 43 74  1  0
 43 75  1  0
 44 76  1  0
 44 77  1  0
M  END
$$$$
[H]OC(=O)c1c([H])c([H])c(-c2c([H])nc(C([H])([H])[H])nc2OC([H])([H])[C@@]2([H])C([H])([H])[C@]2([H])c2nc([H])c(OC([H])([H])[H])c([H])c2[H])c([H])c1[H]
     RDKit          3D

 50 53  0  0  0  0  0  0  0  0999 V2000
    7.6083    0.3381   -1.3571 C   0  0  0  0  0  0  0  0  0  0  0  0
    6.7373    1.2558   -0.7707 O   0  0  0  0  0  0  0  0  0  0  0  0
    5.5239    0.9115   -0.1952 C   0  0  0  0  0  0  0  0  0  0  0  0
    5.0873   -0.3933   -0.1640 C   0  0  0  0  0  0  0  0  0  0  0  0
    3.8663   -0.6356    0.4304 C   0  0  0  0  0  0  0  0  0  0  0  0
    3.0802    0.3464    0.9826 C   0  0  0  0  0  0  0  0  0  0  0  0
    3.5269    1.6048    0.9393 N   0  0  0  0  0  0  0  0  0  0  0  0
    4.7271    1.8765    0.3599 C   0  0  0  0  0  0  0  0  0  0  0  0
    1.7831   -0.0521    1.5931 C   0  0  1  0  0  0  0  0  0  0  0  0
    1.5839    0.6306    2.9631 C   0  0  0  0  0  0  0  0  0  0  0  0
    0.6964    0.8994    1.7582 C   0  0  2  0  0  0  0  0  0  0  0  0
   -0.7338    0.5407    1.9198 C   0  0  0  0  0  0  0  0  0  0  0  0
   -1.4084   -0.1208    0.9803 O   0  0  0  0  0  0  0  0  0  0  0  0
   -1.5351   -1.2196    0.2615 C   0  0  0  0  0  0  0  0  0  0  0  0
   -0.7664   -2.3327    0.3031 N   0  0  0  0  0  0  0  0  0  0  0  0
   -0.9585   -3.4148   -0.4591 C   0  0  0  0  0  0  0  0  0  0  0  0
   -0.0955   -4.6229   -0.3895 C   0  0  0  0  0  0  0  0  0  0  0  0
   -1.9867   -3.4262   -1.3442 N   0  0  0  0  0  0  0  0  0  0  0  0
   -2.8136   -2.3719   -1.4681 C   0  0  0  0  0  0  0  0  0  0  0  0
   -2.5929   -1.2707   -0.6709 C   0  0  0  0  0  0  0  0  0  0  0  0
   -3.4473   -0.0985   -0.7613 C   0  0  0  0  0  0  0  0  0  0  0  0
   -3.0211    1.1957   -0.8483 C   0  0  0  0  0  0  0  0  0  0  0  0
   -3.9609    2.2105   -0.9231 C   0  0  0  0  0  0  0  0  0  0  0  0
   -5.3248    1.9626   -0.9133 C   0  0  0  0  0  0  0  0  0  0  0  0
   -5.7530    0.6620   -0.8260 C   0  0  0  0  0  0  0  0  0  0  0  0
   -4.8266   -0.3452   -0.7517 C   0  0  0  0  0  0  0  0  0  0  0  0
   -6.2824    3.0609   -0.9940 C   0  0  0  0  0  0  0  0  0  0  0  0
   -5.8263    4.3546   -1.0807 O   0  0  0  0  0  0  0  0  0  0  0  0
   -7.5050    2.8127   -0.9833 O   0  0  0  0  0  0  0  0  0  0  0  0
    8.2479    0.8218   -2.1332 H   0  0  0  0  0  0  0  0  0  0  0  0
    8.3393   -0.0641   -0.6006 H   0  0  0  0  0  0  0  0  0  0  0  0
    7.1023   -0.5049   -1.8714 H   0  0  0  0  0  0  0  0  0  0  0  0
    5.6784   -1.2072   -0.5905 H   0  0  0  0  0  0  0  0  0  0  0  0
    3.5447   -1.6849    0.4403 H   0  0  0  0  0  0  0  0  0  0  0  0
    5.0940    2.9104    0.3244 H   0  0  0  0  0  0  0  0  0  0  0  0
    1.5759   -1.1187    1.5408 H   0  0  0  0  0  0  0  0  0  0  0  0
    2.2931    1.3889    3.2933 H   0  0  0  0  0  0  0  0  0  0  0  0
    1.2240   -0.0716    3.7353 H   0  0  0  0  0  0  0  0  0  0  0  0
    0.9225    1.9273    1.2978 H   0  0  0  0  0  0  0  0  0  0  0  0
   -1.2693    1.5497    2.0851 H   0  0  0  0  0  0  0  0  0  0  0  0
   -0.9051    0.0805    2.9693 H   0  0  0  0  0  0  0  0  0  0  0  0
   -0.5642   -5.4495    0.1819 H   0  0  0  0  0  0  0  0  0  0  0  0
    0.9324   -4.3834   -0.0486 H   0  0  0  0  0  0  0  0  0  0  0  0
    0.0044   -4.9877   -1.4471 H   0  0  0  0  0  0  0  0  0  0  0  0
   -3.6436   -2.3663   -2.1744 H   0  0  0  0  0  0  0  0  0  0  0  0
   -1.9581    1.3841   -0.8593 H   0  0  0  0  0  0  0  0  0  0  0  0
   -3.6586    3.2383   -0.9923 H   0  0  0  0  0  0  0  0  0  0  0  0
   -6.8195    0.4796   -0.8192 H   0  0  0  0  0  0  0  0  0  0  0  0
   -5.2004   -1.3567   -0.6840 H   0  0  0  0  0  0  0  0  0  0  0  0
   -6.3225    5.0558   -1.6235 H   0  0  0  0  0  0  0  0  0  0  0  0
  1  2  1  0
  2  3  1  0
  3  4  2  0
  4  5  1  0
  5  6  2  0
  6  7  1  0
  7  8  2  0
  6  9  1  0
  9 10  1  0
 10 11  1  0
 11 12  1  0
 12 13  1  0
 13 14  1  0
 14 15  2  0
 15 16  1  0
 16 17  1  0
 16 18  2  0
 18 19  1  0
 19 20  2  0
 20 21  1  0
 21 22  2  0
 22 23  1  0
 23 24  2  0
 24 25  1  0
 25 26  2  0
 24 27  1  0
 27 28  1  0
 27 29  2  0
  8  3  1  0
 11  9  1  0
 20 14  1  0
 26 21  1  0
  1 30  1  0
  1 31  1  0
  1 32  1  0
  4 33  1  0
  5 34  1  0
  8 35  1  0
  9 36  1  1
 10 37  1  0
 10 38  1  0
 11 39  1  6
 12 40  1  0
 12 41  1  0
 17 42  1  0
 17 43  1  0
 17 44  1  0
 19 45  1  0
 22 46  1  0
 23 47  1  0
 25 48  1  0
 26 49  1  0
 28 50  1  0
M  END
$$$$
[H]C1=C([H])C([H])(F)C([H])([H])C([H])=C1N([H])C(=O)C1(C(=O)N([H])c2c([H])c([H])c(Oc3c([H])c([H])nc4c([H])c(OC([H])([H])C([H])([H])C([H])([H])N5C([H])([H])C([H])([H])OC([H])([H])C5([H])[H])c(OC([H])([H])[H])c([H])c34)c(F)c2[H])C([H])([H])C1([H])[H]
     RDKit          3D

 82 87  0  0  0  0  0  0  0  0999 V2000
    3.9666    3.0495   -1.7322 C   0  0  0  0  0  0  0  0  0  0  0  0
    4.8184    1.9472   -1.5191 O   0  0  0  0  0  0  0  0  0  0  0  0
    4.2779    0.7150   -1.2054 C   0  0  0  0  0  0  0  0  0  0  0  0
    2.9355    0.4830   -1.0834 C   0  0  0  0  0  0  0  0  0  0  0  0
    2.5057   -0.7878   -0.7673 C   0  0  0  0  0  0  0  0  0  0  0  0
    1.1302   -1.0757   -0.6337 C   0  0  0  0  0  0  0  0  0  0  0  0
    0.2693   -0.0306   -0.8259 O   0  0  0  0  0  0  0  0  0  0  0  0
   -1.0898   -0.1642   -0.6451 C   0  0  0  0  0  0  0  0  0  0  0  0
   -1.9847   -0.0120   -1.6950 C   0  0  0  0  0  0  0  0  0  0  0  0
   -3.3381   -0.1282   -1.5809 C   0  0  0  0  0  0  0  0  0  0  0  0
   -3.8905   -0.4214   -0.3289 C   0  0  0  0  0  0  0  0  0  0  0  0
   -5.3238   -0.4986   -0.2135 N   0  0  0  0  0  0  0  0  0  0  0  0
   -5.9613   -1.3830    0.6262 C   0  0  0  0  0  0  0  0  0  0  0  0
   -5.1921   -2.1849    1.2964 O   0  0  0  0  0  0  0  0  0  0  0  0
   -7.4011   -1.5958    0.9101 C   0  0  0  0  0  0  0  0  0  0  0  0
   -7.6820   -2.4618    2.1265 C   0  0  0  0  0  0  0  0  0  0  0  0
   -7.8126   -3.1190    0.8294 C   0  0  0  0  0  0  0  0  0  0  0  0
   -8.4706   -0.6963    0.4763 C   0  0  0  0  0  0  0  0  0  0  0  0
   -9.6747   -1.1656    0.7176 O   0  0  0  0  0  0  0  0  0  0  0  0
   -8.4814    0.5528   -0.1324 N   0  0  0  0  0  0  0  0  0  0  0  0
   -9.7446    1.2195   -0.4499 C   0  0  0  0  0  0  0  0  0  0  0  0
   -9.9496    2.4040    0.0799 C   0  0  0  0  0  0  0  0  0  0  0  0
  -11.1350    3.2347   -0.1097 C   0  0  0  0  0  0  0  0  0  0  0  0
  -12.2008    2.6387   -0.9439 C   0  0  0  0  0  0  0  0  0  0  0  0
  -12.4721    3.4850   -2.0494 F   0  0  0  0  0  0  0  0  0  0  0  0
  -11.8730    1.3187   -1.4859 C   0  0  0  0  0  0  0  0  0  0  0  0
  -10.7586    0.6480   -1.2759 C   0  0  0  0  0  0  0  0  0  0  0  0
   -3.0432   -0.5784    0.7341 C   0  0  0  0  0  0  0  0  0  0  0  0
   -1.6522   -0.4525    0.5863 C   0  0  0  0  0  0  0  0  0  0  0  0
   -0.8827   -0.5957    1.6903 F   0  0  0  0  0  0  0  0  0  0  0  0
    0.7223   -2.3515   -0.3227 C   0  0  0  0  0  0  0  0  0  0  0  0
    1.6378   -3.3635   -0.1352 C   0  0  0  0  0  0  0  0  0  0  0  0
    2.9451   -3.0865   -0.2619 N   0  0  0  0  0  0  0  0  0  0  0  0
    3.3732   -1.8309   -0.5703 C   0  0  0  0  0  0  0  0  0  0  0  0
    4.7330   -1.5901   -0.6954 C   0  0  0  0  0  0  0  0  0  0  0  0
    5.1920   -0.3333   -1.0085 C   0  0  0  0  0  0  0  0  0  0  0  0
    6.5206   -0.0853   -1.1253 O   0  0  0  0  0  0  0  0  0  0  0  0
    7.5310   -0.9938   -0.8772 C   0  0  0  0  0  0  0  0  0  0  0  0
    7.6262   -1.3701    0.5948 C   0  0  0  0  0  0  0  0  0  0  0  0
    7.9359   -0.0985    1.3961 C   0  0  0  0  0  0  0  0  0  0  0  0
    9.1945    0.4265    0.9288 N   0  0  0  0  0  0  0  0  0  0  0  0
    9.4053    1.7864    1.4776 C   0  0  0  0  0  0  0  0  0  0  0  0
   10.8161    2.1639    1.0165 C   0  0  0  0  0  0  0  0  0  0  0  0
   11.2632    1.3549   -0.0281 O   0  0  0  0  0  0  0  0  0  0  0  0
   11.4615    0.0232    0.3872 C   0  0  0  0  0  0  0  0  0  0  0  0
   10.3466   -0.3576    1.3702 C   0  0  0  0  0  0  0  0  0  0  0  0
    4.5770    3.9509   -1.9692 H   0  0  0  0  0  0  0  0  0  0  0  0
    3.3066    3.2216   -0.8582 H   0  0  0  0  0  0  0  0  0  0  0  0
    3.3086    2.7911   -2.5987 H   0  0  0  0  0  0  0  0  0  0  0  0
    2.2243    1.2761   -1.2311 H   0  0  0  0  0  0  0  0  0  0  0  0
   -1.5528    0.2161   -2.6750 H   0  0  0  0  0  0  0  0  0  0  0  0
   -4.0246   -0.0039   -2.4200 H   0  0  0  0  0  0  0  0  0  0  0  0
   -5.8260    0.1518   -0.8369 H   0  0  0  0  0  0  0  0  0  0  0  0
   -6.8106   -2.7138    2.7607 H   0  0  0  0  0  0  0  0  0  0  0  0
   -8.5985   -2.2800    2.7131 H   0  0  0  0  0  0  0  0  0  0  0  0
   -7.0275   -3.7752    0.4011 H   0  0  0  0  0  0  0  0  0  0  0  0
   -8.7992   -3.3162    0.3639 H   0  0  0  0  0  0  0  0  0  0  0  0
   -7.6334    1.0911   -0.3743 H   0  0  0  0  0  0  0  0  0  0  0  0
   -9.1652    2.8388    0.7401 H   0  0  0  0  0  0  0  0  0  0  0  0
  -11.5358    3.5321    0.9159 H   0  0  0  0  0  0  0  0  0  0  0  0
  -10.8538    4.2484   -0.5572 H   0  0  0  0  0  0  0  0  0  0  0  0
  -13.1586    2.5647   -0.3407 H   0  0  0  0  0  0  0  0  0  0  0  0
  -12.6648    0.8691   -2.1323 H   0  0  0  0  0  0  0  0  0  0  0  0
  -10.6018   -0.3227   -1.7168 H   0  0  0  0  0  0  0  0  0  0  0  0
   -3.4037   -0.7893    1.7394 H   0  0  0  0  0  0  0  0  0  0  0  0
   -0.3200   -2.5956   -0.2356 H   0  0  0  0  0  0  0  0  0  0  0  0
    1.2680   -4.3480    0.1079 H   0  0  0  0  0  0  0  0  0  0  0  0
    5.3620   -2.4538   -0.5623 H   0  0  0  0  0  0  0  0  0  0  0  0
    7.4424   -1.9223   -1.5038 H   0  0  0  0  0  0  0  0  0  0  0  0
    8.4920   -0.5348   -1.2249 H   0  0  0  0  0  0  0  0  0  0  0  0
    6.7751   -1.8921    1.0071 H   0  0  0  0  0  0  0  0  0  0  0  0
    8.4922   -2.0400    0.6815 H   0  0  0  0  0  0  0  0  0  0  0  0
    7.1233    0.6400    1.3255 H   0  0  0  0  0  0  0  0  0  0  0  0
    8.0487   -0.4301    2.4644 H   0  0  0  0  0  0  0  0  0  0  0  0
    9.4079    1.7624    2.5778 H   0  0  0  0  0  0  0  0  0  0  0  0
    8.6320    2.4413    1.0296 H   0  0  0  0  0  0  0  0  0  0  0  0
   11.5508    2.0414    1.8480 H   0  0  0  0  0  0  0  0  0  0  0  0
   10.8264    3.2054    0.6080 H   0  0  0  0  0  0  0  0  0  0  0  0
   11.3001   -0.6008   -0.5146 H   0  0  0  0  0  0  0  0  0  0  0  0
   12.4569   -0.1361    0.8078 H   0  0  0  0  0  0  0  0  0  0  0  0
   10.1090   -1.3943    1.4038 H   0  0  0  0  0  0  0  0  0  0  0  0
   10.6797    0.0679    2.3647 H   0  0  0  0  0  0  0  0  0  0  0  0
  1  2  1  0
  2  3  1  0
  3  4  2  0
  4  5  1  0
  5  6  2  0
  6  7  1  0
  7  8  1  0
  8  9  2  0
  9 10  1  0
 10 11  2  0
 11 12  1  0
 12 13  1  0
 13 14  2  0
 13 15  1  0
 15 16  1  0
 16 17  1  0
 15 18  1  0
 18 19  2  0
 18 20  1  0
 20 21  1  0
 21 22  2  0
 22 23  1  0
 23 24  1  0
 24 25  1  0
 24 26  1  0
 26 27  2  0
 11 28  1  0
 28 29  2  0
 29 30  1  0
  6 31  1  0
 31 32  2  0
 32 33  1  0
 33 34  2  0
 34 35  1  0
 35 36  2  0
 36 37  1  0
 37 38  1  0
 38 39  1  0
 39 40  1  0
 40 41  1  0
 41 42  1  0
 42 43  1  0
 43 44  1  0
 44 45  1  0
 45 46  1  0
 36  3  1  0
 46 41  1  0
 34  5  1  0
 29  8  1  0
 17 15  1  0
 27 21  1  0
  1 47  1  0
  1 48  1  0
  1 49  1  0
  4 50  1  0
  9 51  1  0
 10 52  1  0
 12 53  1  0
 16 54  1  0
 16 55  1  0
 17 56  1  0
 17 57  1  0
 20 58  1  0
 22 59  1  0
 23 60  1  0
 23 61  1  0
 24 62  1  0
 26 63  1  0
 27 64  1  0
 28 65  1  0
 31 66  1  0
 32 67  1  0
 35 68  1  0
 38 69  1  0
 38 70  1  0
 39 71  1  0
 39 72  1  0
 40 73  1  0
 40 74  1  0
 42 75  1  0
 42 76  1  0
 43 77  1  0
 43 78  1  0
 45 79  1  0
 45 80  1  0
 46 81  1  0
 46 82  1  0
M  END
$$$$
[H]c1c([H])c([H])c(C(=O)N(C([H])([H])[H])[C@]2([H])C([H])([H])[C@@]3([H])O[C@](C([H])([H])[H])(n4c5c([H])c([H])c([H])c([H])c5c5c6c(c7c8c([H])c([H])c([H])c([H])c8n3c7c54)C([H])([H])N([H])C6=O)[C@]2([H])OC([H])([H])[H])c([H])c1[H]
     RDKit          3D

 73 81  0  0  0  0  0  0  0  0999 V2000
    1.2673   -1.9298    1.1339 C   0  0  0  0  0  0  0  0  0  0  0  0
    0.7780   -0.8877    0.3429 O   0  0  0  0  0  0  0  0  0  0  0  0
    1.0170   -1.0014   -0.9946 C   0  0  2  0  0  0  0  0  0  0  0  0
    1.7811    0.2559   -1.4855 C   0  0  1  0  0  0  0  0  0  0  0  0
    1.0050    1.4229   -1.0026 C   0  0  0  0  0  0  0  0  0  0  0  0
   -0.2954    1.3857   -1.8136 C   0  0  1  0  0  0  0  0  0  0  0  0
   -0.4565    0.2364   -2.4966 O   0  0  0  0  0  0  0  0  0  0  0  0
   -0.2562   -0.9773   -1.8503 C   0  0  1  0  0  0  0  0  0  0  0  0
    0.0186   -1.9130   -3.0400 C   0  0  0  0  0  0  0  0  0  0  0  0
   -1.4034   -1.4019   -1.0727 N   0  0  0  0  0  0  0  0  0  0  0  0
   -1.8301   -2.6401   -0.7978 C   0  0  0  0  0  0  0  0  0  0  0  0
   -1.3038   -3.8582   -1.1343 C   0  0  0  0  0  0  0  0  0  0  0  0
   -1.9182   -5.0354   -0.7292 C   0  0  0  0  0  0  0  0  0  0  0  0
   -3.0525   -4.9994    0.0103 C   0  0  0  0  0  0  0  0  0  0  0  0
   -3.6111   -3.7636    0.3701 C   0  0  0  0  0  0  0  0  0  0  0  0
   -3.0077   -2.6180   -0.0284 C   0  0  0  0  0  0  0  0  0  0  0  0
   -3.3001   -1.2687    0.1726 C   0  0  0  0  0  0  0  0  0  0  0  0
   -4.3192   -0.6291    0.8652 C   0  0  0  0  0  0  0  0  0  0  0  0
   -5.4733   -1.0670    1.6220 C   0  0  0  0  0  0  0  0  0  0  0  0
   -5.9146   -2.1859    1.8900 O   0  0  0  0  0  0  0  0  0  0  0  0
   -6.1626    0.1110    2.1061 N   0  0  0  0  0  0  0  0  0  0  0  0
   -5.4472    1.2853    1.6598 C   0  0  0  0  0  0  0  0  0  0  0  0
   -4.2954    0.7618    0.8802 C   0  0  0  0  0  0  0  0  0  0  0  0
   -3.3083    1.4708    0.2378 C   0  0  0  0  0  0  0  0  0  0  0  0
   -3.0456    2.8253    0.0933 C   0  0  0  0  0  0  0  0  0  0  0  0
   -3.6866    3.9527    0.5474 C   0  0  0  0  0  0  0  0  0  0  0  0
   -3.2003    5.2161    0.2515 C   0  0  0  0  0  0  0  0  0  0  0  0
   -2.0497    5.3147   -0.5149 C   0  0  0  0  0  0  0  0  0  0  0  0
   -1.4218    4.1743   -0.9605 C   0  0  0  0  0  0  0  0  0  0  0  0
   -1.9093    2.9102   -0.6639 C   0  0  0  0  0  0  0  0  0  0  0  0
   -1.4631    1.6911   -0.9902 N   0  0  0  0  0  0  0  0  0  0  0  0
   -2.3108    0.8111   -0.4424 C   0  0  0  0  0  0  0  0  0  0  0  0
   -2.3157   -0.5632   -0.4685 C   0  0  0  0  0  0  0  0  0  0  0  0
    3.1924    0.2291   -1.2428 N   0  0  0  0  0  0  0  0  0  0  0  0
    4.0050   -0.0811   -2.4175 C   0  0  0  0  0  0  0  0  0  0  0  0
    3.7559    0.5278   -0.0171 C   0  0  0  0  0  0  0  0  0  0  0  0
    2.9341    0.9559    0.8872 O   0  0  0  0  0  0  0  0  0  0  0  0
    5.1266    0.4528    0.4579 C   0  0  0  0  0  0  0  0  0  0  0  0
    6.1706   -0.1604   -0.1603 C   0  0  0  0  0  0  0  0  0  0  0  0
    7.4756   -0.1186    0.3596 C   0  0  0  0  0  0  0  0  0  0  0  0
    7.7650    0.5374    1.5124 C   0  0  0  0  0  0  0  0  0  0  0  0
    6.7244    1.1585    2.1477 C   0  0  0  0  0  0  0  0  0  0  0  0
    5.4545    1.1278    1.6563 C   0  0  0  0  0  0  0  0  0  0  0  0
    2.3656   -2.0600    1.0667 H   0  0  0  0  0  0  0  0  0  0  0  0
    0.7013   -2.8348    0.9322 H   0  0  0  0  0  0  0  0  0  0  0  0
    0.9843   -1.6324    2.1885 H   0  0  0  0  0  0  0  0  0  0  0  0
    1.6167   -1.9120   -1.2578 H   0  0  0  0  0  0  0  0  0  0  0  0
    1.6248    0.1722   -2.6451 H   0  0  0  0  0  0  0  0  0  0  0  0
    1.5528    2.3668   -1.1430 H   0  0  0  0  0  0  0  0  0  0  0  0
    0.7444    1.3665    0.0931 H   0  0  0  0  0  0  0  0  0  0  0  0
   -0.1987    2.2087   -2.5519 H   0  0  0  0  0  0  0  0  0  0  0  0
    0.2879   -1.2976   -3.9703 H   0  0  0  0  0  0  0  0  0  0  0  0
    0.9209   -2.5209   -2.9030 H   0  0  0  0  0  0  0  0  0  0  0  0
   -0.8909   -2.4439   -3.3701 H   0  0  0  0  0  0  0  0  0  0  0  0
   -0.3913   -3.9239   -1.6866 H   0  0  0  0  0  0  0  0  0  0  0  0
   -1.4256   -5.9585   -1.0470 H   0  0  0  0  0  0  0  0  0  0  0  0
   -3.5448   -5.8895    0.3345 H   0  0  0  0  0  0  0  0  0  0  0  0
   -4.5002   -3.7885    0.9497 H   0  0  0  0  0  0  0  0  0  0  0  0
   -7.0282    0.1527    2.6801 H   0  0  0  0  0  0  0  0  0  0  0  0
   -5.1477    1.8592    2.5474 H   0  0  0  0  0  0  0  0  0  0  0  0
   -6.1560    1.8480    0.9974 H   0  0  0  0  0  0  0  0  0  0  0  0
   -4.5834    3.8981    1.1451 H   0  0  0  0  0  0  0  0  0  0  0  0
   -3.6737    6.1146    0.5884 H   0  0  0  0  0  0  0  0  0  0  0  0
   -1.6152    6.2617   -0.7835 H   0  0  0  0  0  0  0  0  0  0  0  0
   -0.5251    4.2610   -1.5576 H   0  0  0  0  0  0  0  0  0  0  0  0
    4.8874    0.5600   -2.4816 H   0  0  0  0  0  0  0  0  0  0  0  0
    4.2916   -1.1375   -2.4328 H   0  0  0  0  0  0  0  0  0  0  0  0
    3.3813    0.0431   -3.3558 H   0  0  0  0  0  0  0  0  0  0  0  0
    6.0353   -0.7396   -1.0642 H   0  0  0  0  0  0  0  0  0  0  0  0
    8.2791   -0.6211   -0.1677 H   0  0  0  0  0  0  0  0  0  0  0  0
    8.7454    0.5947    1.9438 H   0  0  0  0  0  0  0  0  0  0  0  0
    6.8926    1.7045    3.0832 H   0  0  0  0  0  0  0  0  0  0  0  0
    4.6571    1.6338    2.1872 H   0  0  0  0  0  0  0  0  0  0  0  0
  1  2  1  0
  2  3  1  0
  3  4  1  0
  4  5  1  0
  5  6  1  0
  6  7  1  0
  7  8  1  0
  8  9  1  6
  8 10  1  0
 10 11  1  0
 11 12  2  0
 12 13  1  0
 13 14  2  0
 14 15  1  0
 15 16  2  0
 16 17  1  0
 17 18  2  0
 18 19  1  0
 19 20  2  0
 19 21  1  0
 21 22  1  0
 22 23  1  0
 23 24  2  0
 24 25  1  0
 25 26  2  0
 26 27  1  0
 27 28  2  0
 28 29  1  0
 29 30  2  0
 30 31  1  0
 31 32  1  0
 32 33  2  0
  4 34  1  0
 34 35  1  0
 34 36  1  0
 36 37  2  0
 36 38  1  0
 38 39  2  0
 39 40  1  0
 40 41  2  0
 41 42  1  0
 42 43  2  0
  8  3  1  0
 33 10  1  0
 43 38  1  0
 31  6  1  0
 16 11  1  0
 33 17  1  0
 23 18  1  0
 32 24  1  0
 30 25  1  0
  1 44  1  0
  1 45  1  0
  1 46  1  0
  3 47  1  1
  4 48  1  6
  5 49  1  0
  5 50  1  0
  6 51  1  6
  9 52  1  0
  9 53  1  0
  9 54  1  0
 12 55  1  0
 13 56  1  0
 14 57  1  0
 15 58  1  0
 21 59  1  0
 22 60  1  0
 22 61  1  0
 26 62  1  0
 27 63  1  0
 28 64  1  0
 29 65  1  0
 35 66  1  0
 35 67  1  0
 35 68  1  0
 39 69  1  0
 40 70  1  0
 41 71  1  0
 42 72  1  0
 43 73  1  0
M  END
$$$$
[H]C1([H])C(=O)C([H])([H])[C@@]([H])(C([H])([H])[H])[C@]2([H])[C@]([H])(C([H])([H])[H])C([H])([H])[C@@]3([H])[C@]4([H])C([H])([H])C([H])([H])C([H])([H])[C@]([H])(C([H])([H])[H])[C@@]4(C([H])([H])[H])C([H])([H])C([H])([H])[C@]3([H])[C@@]2(C([H])([H])[H])C1([H])[H]
     RDKit          3D

 65 68  0  0  0  0  0  0  0  0999 V2000
   -1.9120    2.6395    0.5353 C   0  0  0  0  0  0  0  0  0  0  0  0
   -1.6696    1.3821    1.2609 C   0  0  2  0  0  0  0  0  0  0  0  0
   -0.1878    1.2361    1.5181 C   0  0  0  0  0  0  0  0  0  0  0  0
    0.5141    0.6428    0.2867 C   0  0  1  0  0  0  0  0  0  0  0  0
    1.9496    0.5324    0.6459 C   0  0  2  0  0  0  0  0  0  0  0  0
    2.5890    1.8622    0.8361 C   0  0  0  0  0  0  0  0  0  0  0  0
    3.9350    2.0219    0.2372 C   0  0  0  0  0  0  0  0  0  0  0  0
    4.8024    0.8192    0.2531 C   0  0  0  0  0  0  0  0  0  0  0  0
    4.0917   -0.4842    0.2752 C   0  0  2  0  0  0  0  0  0  0  0  0
    4.8841   -1.6101   -0.3461 C   0  0  0  0  0  0  0  0  0  0  0  0
    2.7244   -0.3433   -0.3183 C   0  0  2  0  0  0  0  0  0  0  0  0
    2.7372    0.2183   -1.7124 C   0  0  0  0  0  0  0  0  0  0  0  0
    2.0610   -1.6657   -0.3314 C   0  0  0  0  0  0  0  0  0  0  0  0
    0.6147   -1.6572   -0.7788 C   0  0  0  0  0  0  0  0  0  0  0  0
   -0.1421   -0.6689    0.0125 C   0  0  2  0  0  0  0  0  0  0  0  0
   -1.5839   -0.4532   -0.4782 C   0  0  1  0  0  0  0  0  0  0  0  0
   -1.6130    0.3361   -1.7335 C   0  0  0  0  0  0  0  0  0  0  0  0
   -2.1422   -1.8152   -0.8099 C   0  0  0  0  0  0  0  0  0  0  0  0
   -3.3732   -1.8350   -1.6208 C   0  0  0  0  0  0  0  0  0  0  0  0
   -4.3525   -0.7778   -1.3884 C   0  0  0  0  0  0  0  0  0  0  0  0
   -5.2967   -0.8585   -2.1952 O   0  0  0  0  0  0  0  0  0  0  0  0
   -4.5292    0.3515   -0.4668 C   0  0  0  0  0  0  0  0  0  0  0  0
   -3.7445    0.1269    0.7601 C   0  0  1  0  0  0  0  0  0  0  0  0
   -4.3419   -1.1310    1.4073 C   0  0  0  0  0  0  0  0  0  0  0  0
   -2.2799    0.1300    0.7081 C   0  0  2  0  0  0  0  0  0  0  0  0
   -2.9142    2.8123    0.1466 H   0  0  0  0  0  0  0  0  0  0  0  0
   -1.1311    2.8260   -0.2607 H   0  0  0  0  0  0  0  0  0  0  0  0
   -1.7282    3.4851    1.2661 H   0  0  0  0  0  0  0  0  0  0  0  0
   -2.1254    1.5084    2.2917 H   0  0  0  0  0  0  0  0  0  0  0  0
    0.2648    2.2077    1.7145 H   0  0  0  0  0  0  0  0  0  0  0  0
   -0.0093    0.5072    2.3398 H   0  0  0  0  0  0  0  0  0  0  0  0
    0.4135    1.3968   -0.4994 H   0  0  0  0  0  0  0  0  0  0  0  0
    2.0040   -0.0036    1.6397 H   0  0  0  0  0  0  0  0  0  0  0  0
    1.9113    2.6265    0.3525 H   0  0  0  0  0  0  0  0  0  0  0  0
    2.5767    2.1579    1.9263 H   0  0  0  0  0  0  0  0  0  0  0  0
    4.4703    2.8264    0.8257 H   0  0  0  0  0  0  0  0  0  0  0  0
    3.8503    2.4737   -0.7955 H   0  0  0  0  0  0  0  0  0  0  0  0
    5.4553    0.8442   -0.6588 H   0  0  0  0  0  0  0  0  0  0  0  0
    5.5230    0.8237    1.1215 H   0  0  0  0  0  0  0  0  0  0  0  0
    3.9457   -0.7708    1.3531 H   0  0  0  0  0  0  0  0  0  0  0  0
    4.9719   -1.5288   -1.4388 H   0  0  0  0  0  0  0  0  0  0  0  0
    5.8718   -1.6236    0.1662 H   0  0  0  0  0  0  0  0  0  0  0  0
    4.3785   -2.5665   -0.0348 H   0  0  0  0  0  0  0  0  0  0  0  0
    3.7720    0.4273   -2.0494 H   0  0  0  0  0  0  0  0  0  0  0  0
    2.0905    1.1324   -1.7326 H   0  0  0  0  0  0  0  0  0  0  0  0
    2.3075   -0.4799   -2.4671 H   0  0  0  0  0  0  0  0  0  0  0  0
    2.0928   -2.0711    0.7195 H   0  0  0  0  0  0  0  0  0  0  0  0
    2.5773   -2.4169   -0.9849 H   0  0  0  0  0  0  0  0  0  0  0  0
    0.5215   -1.5371   -1.8760 H   0  0  0  0  0  0  0  0  0  0  0  0
    0.3002   -2.7072   -0.4820 H   0  0  0  0  0  0  0  0  0  0  0  0
   -0.2735   -1.1476    1.0327 H   0  0  0  0  0  0  0  0  0  0  0  0
   -2.1931    1.2560   -1.7278 H   0  0  0  0  0  0  0  0  0  0  0  0
   -2.0042   -0.2426   -2.6277 H   0  0  0  0  0  0  0  0  0  0  0  0
   -0.5832    0.6304   -2.0982 H   0  0  0  0  0  0  0  0  0  0  0  0
   -1.3751   -2.2689   -1.5135 H   0  0  0  0  0  0  0  0  0  0  0  0
   -2.2027   -2.4883    0.0663 H   0  0  0  0  0  0  0  0  0  0  0  0
   -3.8967   -2.8161   -1.4041 H   0  0  0  0  0  0  0  0  0  0  0  0
   -3.2105   -1.8830   -2.7391 H   0  0  0  0  0  0  0  0  0  0  0  0
   -4.4514    1.3379   -0.9412 H   0  0  0  0  0  0  0  0  0  0  0  0
   -5.6161    0.3041   -0.1344 H   0  0  0  0  0  0  0  0  0  0  0  0
   -4.0371    0.9584    1.4773 H   0  0  0  0  0  0  0  0  0  0  0  0
   -3.4764   -1.6476    1.9168 H   0  0  0  0  0  0  0  0  0  0  0  0
   -4.7426   -1.8305    0.6735 H   0  0  0  0  0  0  0  0  0  0  0  0
   -5.0532   -0.8999    2.2134 H   0  0  0  0  0  0  0  0  0  0  0  0
   -2.0094   -0.6111    1.5421 H   0  0  0  0  0  0  0  0  0  0  0  0
  1  2  1  0
  2  3  1  0
  3  4  1  0
  4  5  1  0
  5  6  1  0
  6  7  1  0
  7  8  1  0
  8  9  1  0
  9 10  1  0
  9 11  1  0
 11 12  1  6
 11 13  1  0
 13 14  1  0
 14 15  1  0
 15 16  1  0
 16 17  1  6
 16 18  1  0
 18 19  1  0
 19 20  1  0
 20 21  2  0
 20 22  1  0
 22 23  1  0
 23 24  1  0
 23 25  1  0
 25  2  1  0
 15  4  1  0
 25 16  1  0
 11  5  1  0
  1 26  1  0
  1 27  1  0
  1 28  1  0
  2 29  1  1
  3 30  1  0
  3 31  1  0
  4 32  1  6
  5 33  1  1
  6 34  1  0
  6 35  1  0
  7 36  1  0
  7 37  1  0
  8 38  1  0
  8 39  1  0
  9 40  1  1
 10 41  1  0
 10 42  1  0
 10 43  1  0
 12 44  1  0
 12 45  1  0
 12 46  1  0
 13 47  1  0
 13 48  1  0
 14 49  1  0
 14 50  1  0
 15 51  1  1
 17 52  1  0
 17 53  1  0
 17 54  1  0
 18 55  1  0
 18 56  1  0
 19 57  1  0
 19 58  1  0
 22 59  1  0
 22 60  1  0
 23 61  1  1
 24 62  1  0
 24 63  1  0
 24 64  1  0
 25 65  1  1
M  END
$$$$
[H]C1=C([H])C([H])(F)C([H])([H])C([H])=C1N([H])C(=O)C1(C(=O)N([H])c2c([H])c([H])c(Oc3c([H])c([H])nc4c([H])c(OC([H])([H])C([H])([H])C([H])([H])N5C([H])([H])C([H])([H])OC([H])([H])C5([H])[H])c(OC([H])([H])[H])c([H])c34)c(F)c2[H])C([H])([H])C1([H])[H]
     RDKit          3D

 82 87  0  0  0  0  0  0  0  0999 V2000
    3.9666    3.0495   -1.7322 C   0  0  0  0  0  0  0  0  0  0  0  0
    4.8184    1.9472   -1.5191 O   0  0  0  0  0  0  0  0  0  0  0  0
    4.2779    0.7150   -1.2054 C   0  0  0  0  0  0  0  0  0  0  0  0
    2.9355    0.4830   -1.0834 C   0  0  0  0  0  0  0  0  0  0  0  0
    2.5057   -0.7878   -0.7673 C   0  0  0  0  0  0  0  0  0  0  0  0
    1.1302   -1.0757   -0.6337 C   0  0  0  0  0  0  0  0  0  0  0  0
    0.2693   -0.0306   -0.8259 O   0  0  0  0  0  0  0  0  0  0  0  0
   -1.0898   -0.1642   -0.6451 C   0  0  0  0  0  0  0  0  0  0  0  0
   -1.9847   -0.0120   -1.6950 C   0  0  0  0  0  0  0  0  0  0  0  0
   -3.3381   -0.1282   -1.5809 C   0  0  0  0  0  0  0  0  0  0  0  0
   -3.8905   -0.4214   -0.3289 C   0  0  0  0  0  0  0  0  0  0  0  0
   -5.3238   -0.4986   -0.2135 N   0  0  0  0  0  0  0  0  0  0  0  0
   -5.9613   -1.3830    0.6262 C   0  0  0  0  0  0  0  0  0  0  0  0
   -5.1921   -2.1849    1.2964 O   0  0  0  0  0  0  0  0  0  0  0  0
   -7.4011   -1.5958    0.9101 C   0  0  0  0  0  0  0  0  0  0  0  0
   -7.6820   -2.4618    2.1265 C   0  0  0  0  0  0  0  0  0  0  0  0
   -7.8126   -3.1190    0.8294 C   0  0  0  0  0  0  0  0  0  0  0  0
   -8.4706   -0.6963    0.4763 C   0  0  0  0  0  0  0  0  0  0  0  0
   -9.6747   -1.1656    0.7176 O   0  0  0  0  0  0  0  0  0  0  0  0
   -8.4814    0.5528   -0.1324 N   0  0  0  0  0  0  0  0  0  0  0  0
   -9.7446    1.2195   -0.4499 C   0  0  0  0  0  0  0  0  0  0  0  0
   -9.9496    2.4040    0.0799 C   0  0  0  0  0  0  0  0  0  0  0  0
  -11.1350    3.2347   -0.1097 C   0  0  0  0  0  0  0  0  0  0  0  0
  -12.2008    2.6387   -0.9439 C   0  0  0  0  0  0  0  0  0  0  0  0
  -12.4721    3.4850   -2.0494 F   0  0  0  0  0  0  0  0  0  0  0  0
  -11.8730    1.3187   -1.4859 C   0  0  0  0  0  0  0  0  0  0  0  0
  -10.7586    0.6480   -1.2759 C   0  0  0  0  0  0  0  0  0  0  0  0
   -3.0432   -0.5784    0.7341 C   0  0  0  0  0  0  0  0  0  0  0  0
   -1.6522   -0.4525    0.5863 C   0  0  0  0  0  0  0  0  0  0  0  0
   -0.8827   -0.5957    1.6903 F   0  0  0  0  0  0  0  0  0  0  0  0
    0.7223   -2.3515   -0.3227 C   0  0  0  0  0  0  0  0  0  0  0  0
    1.6378   -3.3635   -0.1352 C   0  0  0  0  0  0  0  0  0  0  0  0
    2.9451   -3.0865   -0.2619 N   0  0  0  0  0  0  0  0  0  0  0  0
    3.3732   -1.8309   -0.5703 C   0  0  0  0  0  0  0  0  0  0  0  0
    4.7330   -1.5901   -0.6954 C   0  0  0  0  0  0  0  0  0  0  0  0
    5.1920   -0.3333   -1.0085 C   0  0  0  0  0  0  0  0  0  0  0  0
    6.5206   -0.0853   -1.1253 O   0  0  0  0  0  0  0  0  0  0  0  0
    7.5310   -0.9938   -0.8772 C   0  0  0  0  0  0  0  0  0  0  0  0
    7.6262   -1.3701    0.5948 C   0  0  0  0  0  0  0  0  0  0  0  0
    7.9359   -0.0985    1.3961 C   0  0  0  0  0  0  0  0  0  0  0  0
    9.1945    0.4265    0.9288 N   0  0  0  0  0  0  0  0  0  0  0  0
    9.4053    1.7864    1.4776 C   0  0  0  0  0  0  0  0  0  0  0  0
   10.8161    2.1639    1.0165 C   0  0  0  0  0  0  0  0  0  0  0  0
   11.2632    1.3549   -0.0281 O   0  0  0  0  0  0  0  0  0  0  0  0
   11.4615    0.0232    0.3872 C   0  0  0  0  0  0  0  0  0  0  0  0
   10.3466   -0.3576    1.3702 C   0  0  0  0  0  0  0  0  0  0  0  0
    4.5770    3.9509   -1.9692 H   0  0  0  0  0  0  0  0  0  0  0  0
    3.3066    3.2216   -0.8582 H   0  0  0  0  0  0  0  0  0  0  0  0
    3.3086    2.7911   -2.5987 H   0  0  0  0  0  0  0  0  0  0  0  0
    2.2243    1.2761   -1.2311 H   0  0  0  0  0  0  0  0  0  0  0  0
   -1.5528    0.2161   -2.6750 H   0  0  0  0  0  0  0  0  0  0  0  0
   -4.0246   -0.0039   -2.4200 H   0  0  0  0  0  0  0  0  0  0  0  0
   -5.8260    0.1518   -0.8369 H   0  0  0  0  0  0  0  0  0  0  0  0
   -6.8106   -2.7138    2.7607 H   0  0  0  0  0  0  0  0  0  0  0  0
   -8.5985   -2.2800    2.7131 H   0  0  0  0  0  0  0  0  0  0  0  0
   -7.0275   -3.7752    0.4011 H   0  0  0  0  0  0  0  0  0  0  0  0
   -8.7992   -3.3162    0.3639 H   0  0  0  0  0  0  0  0  0  0  0  0
   -7.6334    1.0911   -0.3743 H   0  0  0  0  0  0  0  0  0  0  0  0
   -9.1652    2.8388    0.7401 H   0  0  0  0  0  0  0  0  0  0  0  0
  -11.5358    3.5321    0.9159 H   0  0  0  0  0  0  0  0  0  0  0  0
  -10.8538    4.2484   -0.5572 H   0  0  0  0  0  0  0  0  0  0  0  0
  -13.1586    2.5647   -0.3407 H   0  0  0  0  0  0  0  0  0  0  0  0
  -12.6648    0.8691   -2.1323 H   0  0  0  0  0  0  0  0  0  0  0  0
  -10.6018   -0.3227   -1.7168 H   0  0  0  0  0  0  0  0  0  0  0  0
   -3.4037   -0.7893    1.7394 H   0  0  0  0  0  0  0  0  0  0  0  0
   -0.3200   -2.5956   -0.2356 H   0  0  0  0  0  0  0  0  0  0  0  0
    1.2680   -4.3480    0.1079 H   0  0  0  0  0  0  0  0  0  0  0  0
    5.3620   -2.4538   -0.5623 H   0  0  0  0  0  0  0  0  0  0  0  0
    7.4424   -1.9223   -1.5038 H   0  0  0  0  0  0  0  0  0  0  0  0
    8.4920   -0.5348   -1.2249 H   0  0  0  0  0  0  0  0  0  0  0  0
    6.7751   -1.8921    1.0071 H   0  0  0  0  0  0  0  0  0  0  0  0
    8.4922   -2.0400    0.6815 H   0  0  0  0  0  0  0  0  0  0  0  0
    7.1233    0.6400    1.3255 H   0  0  0  0  0  0  0  0  0  0  0  0
    8.0487   -0.4301    2.4644 H   0  0  0  0  0  0  0  0  0  0  0  0
    9.4079    1.7624    2.5778 H   0  0  0  0  0  0  0  0  0  0  0  0
    8.6320    2.4413    1.0296 H   0  0  0  0  0  0  0  0  0  0  0  0
   11.5508    2.0414    1.8480 H   0  0  0  0  0  0  0  0  0  0  0  0
   10.8264    3.2054    0.6080 H   0  0  0  0  0  0  0  0  0  0  0  0
   11.3001   -0.6008   -0.5146 H   0  0  0  0  0  0  0  0  0  0  0  0
   12.4569   -0.1361    0.8078 H   0  0  0  0  0  0  0  0  0  0  0  0
   10.1090   -1.3943    1.4038 H   0  0  0  0  0  0  0  0  0  0  0  0
   10.6797    0.0679    2.3647 H   0  0  0  0  0  0  0  0  0  0  0  0
  1  2  1  0
  2  3  1  0
  3  4  2  0
  4  5  1  0
  5  6  2  0
  6  7  1  0
  7  8  1  0
  8  9  2  0
  9 10  1  0
 10 11  2  0
 11 12  1  0
 12 13  1  0
 13 14  2  0
 13 15  1  0
 15 16  1  0
 16 17  1  0
 15 18  1  0
 18 19  2  0
 18 20  1  0
 20 21  1  0
 21 22  2  0
 22 23  1  0
 23 24  1  0
 24 25  1  0
 24 26  1  0
 26 27  2  0
 11 28  1  0
 28 29  2  0
 29 30  1  0
  6 31  1  0
 31 32  2  0
 32 33  1  0
 33 34  2  0
 34 35  1  0
 35 36  2  0
 36 37  1  0
 37 38  1  0
 38 39  1  0
 39 40  1  0
 40 41  1  0
 41 42  1  0
 42 43  1  0
 43 44  1  0
 44 45  1  0
 45 46  1  0
 36  3  1  0
 46 41  1  0
 34  5  1  0
 29  8  1  0
 17 15  1  0
 27 21  1  0
  1 47  1  0
  1 48  1  0
  1 49  1  0
  4 50  1  0
  9 51  1  0
 10 52  1  0
 12 53  1  0
 16 54  1  0
 16 55  1  0
 17 56  1  0
 17 57  1  0
 20 58  1  0
 22 59  1  0
 23 60  1  0
 23 61  1  0
 24 62  1  0
 26 63  1  0
 27 64  1  0
 28 65  1  0
 31 66  1  0
 32 67  1  0
 35 68  1  0
 38 69  1  0
 38 70  1  0
 39 71  1  0
 39 72  1  0
 40 73  1  0
 40 74  1  0
 42 75  1  0
 42 76  1  0
 43 77  1  0
 43 78  1  0
 45 79  1  0
 45 80  1  0
 46 81  1  0
 46 82  1  0
M  END
$$$$
[H]ON([H])C(=O)C([H])([H])N(C([H])([H])c1c([H])c([H])c([N+](=O)[O-])c([H])c1[H])S(=O)(=O)c1c([H])c([H])c([N+](=O)[O-])c([H])c1[H]
     RDKit          3D

 42 43  0  0  0  0  0  0  0  0999 V2000
    0.5641   -4.7509    2.2937 O   0  0  0  0  0  0  0  0  0  0  0  0
    0.1120   -3.4920    2.3545 N   0  0  0  0  0  0  0  0  0  0  0  0
    0.3864   -2.5986    1.3075 C   0  0  0  0  0  0  0  0  0  0  0  0
    1.0567   -3.0087    0.3299 O   0  0  0  0  0  0  0  0  0  0  0  0
   -0.0961   -1.2252    1.3541 C   0  0  0  0  0  0  0  0  0  0  0  0
    0.2349   -0.4056    0.2480 N   0  0  0  0  0  0  0  0  0  0  0  0
    0.9662    0.7629    0.5845 C   0  0  0  0  0  0  0  0  0  0  0  0
    2.3006    0.8257   -0.1018 C   0  0  0  0  0  0  0  0  0  0  0  0
    3.3205   -0.0445    0.2504 C   0  0  0  0  0  0  0  0  0  0  0  0
    4.5424    0.0235   -0.3787 C   0  0  0  0  0  0  0  0  0  0  0  0
    4.8268    0.9344   -1.3724 C   0  0  0  0  0  0  0  0  0  0  0  0
    3.8043    1.8075   -1.7261 C   0  0  0  0  0  0  0  0  0  0  0  0
    2.5812    1.7377   -1.0944 C   0  0  0  0  0  0  0  0  0  0  0  0
    6.0965    0.9822   -2.0046 N   0  0  0  0  0  0  0  0  0  0  0  0
    6.3918    1.8806   -2.9914 O   0  0  0  0  0  0  0  0  0  0  0  0
    6.9792    0.1839   -1.6569 O   0  0  0  0  0  0  0  0  0  0  0  0
   -0.8123   -0.3586   -1.0448 S   0  0  0  0  0  0  0  0  0  0  0  0
   -1.0979   -1.6776   -1.6955 O   0  0  0  0  0  0  0  0  0  0  0  0
   -0.3077    0.5838   -2.0980 O   0  0  0  0  0  0  0  0  0  0  0  0
   -2.3862    0.2691   -0.5247 C   0  0  0  0  0  0  0  0  0  0  0  0
   -2.6972    1.5917   -0.5499 C   0  0  0  0  0  0  0  0  0  0  0  0
   -3.9440    2.0414   -0.1327 C   0  0  0  0  0  0  0  0  0  0  0  0
   -4.9044    1.1674    0.3189 C   0  0  0  0  0  0  0  0  0  0  0  0
   -4.6022   -0.1696    0.3489 C   0  0  0  0  0  0  0  0  0  0  0  0
   -3.3509   -0.6172   -0.0702 C   0  0  0  0  0  0  0  0  0  0  0  0
   -6.1889    1.5787    0.7543 N   0  0  0  0  0  0  0  0  0  0  0  0
   -6.4855    2.9298    0.7204 O   0  0  0  0  0  0  0  0  0  0  0  0
   -7.0310    0.7548    1.1567 O   0  0  0  0  0  0  0  0  0  0  0  0
   -0.0968   -5.3437    1.8164 H   0  0  0  0  0  0  0  0  0  0  0  0
   -0.4371   -3.1927    3.1776 H   0  0  0  0  0  0  0  0  0  0  0  0
   -1.2186   -1.1741    1.4818 H   0  0  0  0  0  0  0  0  0  0  0  0
    0.2988   -0.7237    2.2869 H   0  0  0  0  0  0  0  0  0  0  0  0
    1.1275    0.7522    1.6968 H   0  0  0  0  0  0  0  0  0  0  0  0
    0.3733    1.6638    0.3808 H   0  0  0  0  0  0  0  0  0  0  0  0
    3.1000   -0.7593    1.0289 H   0  0  0  0  0  0  0  0  0  0  0  0
    5.3294   -0.6645   -0.0914 H   0  0  0  0  0  0  0  0  0  0  0  0
    4.0039    2.5331   -2.5051 H   0  0  0  0  0  0  0  0  0  0  0  0
    1.7764    2.4273   -1.3688 H   0  0  0  0  0  0  0  0  0  0  0  0
   -1.9395    2.2871   -0.9068 H   0  0  0  0  0  0  0  0  0  0  0  0
   -4.1936    3.0883   -0.1513 H   0  0  0  0  0  0  0  0  0  0  0  0
   -5.2974   -0.9332    0.6898 H   0  0  0  0  0  0  0  0  0  0  0  0
   -3.0855   -1.6673   -0.0572 H   0  0  0  0  0  0  0  0  0  0  0  0
  1  2  1  0
  2  3  1  0
  3  4  2  0
  3  5  1  0
  5  6  1  0
  6  7  1  0
  7  8  1  0
  8  9  2  0
  9 10  1  0
 10 11  2  0
 11 12  1  0
 12 13  2  0
 11 14  1  0
 14 15  1  0
 14 16  2  0
  6 17  1  0
 17 18  2  0
 17 19  2  0
 17 20  1  0
 20 21  2  0
 21 22  1  0
 22 23  2  0
 23 24  1  0
 24 25  2  0
 23 26  1  0
 26 27  1  0
 26 28  2  0
 13  8  1  0
 25 20  1  0
  1 29  1  0
  2 30  1  0
  5 31  1  0
  5 32  1  0
  7 33  1  0
  7 34  1  0
  9 35  1  0
 10 36  1  0
 12 37  1  0
 13 38  1  0
 21 39  1  0
 22 40  1  0
 24 41  1  0
 25 42  1  0
M  CHG  4  14   1  15  -1  26   1  27  -1
M  END
$$$$
[H]OC(=O)C([H])(C([H])([H])c1c([H])c([H])c([H])c([H])c1[H])C([H])([H])P(=O)(O[H])C([H])(C([H])([H])c1c([H])c([H])c([H])c([H])c1[H])C([H])([H])P(=O)(O[H])C([H])([H])C(=O)O[H]
     RDKit          3D

 57 58  0  0  0  0  0  0  0  0999 V2000
    2.0476    1.1794    2.2816 O   0  0  0  0  0  0  0  0  0  0  0  0
    2.4196   -0.0986    1.8691 C   0  0  0  0  0  0  0  0  0  0  0  0
    2.9661   -0.7919    2.7979 O   0  0  0  0  0  0  0  0  0  0  0  0
    2.2190   -0.6256    0.5155 C   0  0  0  0  0  0  0  0  0  0  0  0
    2.9033    0.1408   -0.5787 C   0  0  0  0  0  0  0  0  0  0  0  0
    4.3813    0.1399   -0.3656 C   0  0  0  0  0  0  0  0  0  0  0  0
    4.9837    1.1410    0.3600 C   0  0  0  0  0  0  0  0  0  0  0  0
    6.3361    1.1310    0.5526 C   0  0  0  0  0  0  0  0  0  0  0  0
    7.0975    0.1188    0.0204 C   0  0  0  0  0  0  0  0  0  0  0  0
    6.4897   -0.8927   -0.7127 C   0  0  0  0  0  0  0  0  0  0  0  0
    5.1213   -0.8676   -0.8979 C   0  0  0  0  0  0  0  0  0  0  0  0
    0.8244   -1.0446    0.1847 C   0  0  0  0  0  0  0  0  0  0  0  0
   -0.4437    0.1980    0.2863 P   0  0  0  0  0  0  0  0  0  0  0  0
    0.2652    1.7673    0.1262 O   0  0  0  0  0  0  0  0  0  0  0  0
   -1.0636    0.2467    1.6973 O   0  0  0  0  0  0  0  0  0  0  0  0
   -1.6919    0.0279   -0.9697 C   0  0  0  0  0  0  0  0  0  0  0  0
   -1.9067   -1.2876   -1.6128 C   0  0  0  0  0  0  0  0  0  0  0  0
   -2.3225   -2.4356   -0.8351 C   0  0  0  0  0  0  0  0  0  0  0  0
   -3.6701   -2.5381   -0.4372 C   0  0  0  0  0  0  0  0  0  0  0  0
   -4.1671   -3.6155    0.2549 C   0  0  0  0  0  0  0  0  0  0  0  0
   -3.3657   -4.6778    0.6072 C   0  0  0  0  0  0  0  0  0  0  0  0
   -2.0417   -4.6126    0.2340 C   0  0  0  0  0  0  0  0  0  0  0  0
   -1.5630   -3.5156   -0.4642 C   0  0  0  0  0  0  0  0  0  0  0  0
   -3.0311    0.6595   -0.5825 C   0  0  0  0  0  0  0  0  0  0  0  0
   -2.8314    2.4207   -0.3154 P   0  0  0  0  0  0  0  0  0  0  0  0
   -1.9859    3.1474   -1.6132 O   0  0  0  0  0  0  0  0  0  0  0  0
   -2.2010    2.7649    0.9994 O   0  0  0  0  0  0  0  0  0  0  0  0
   -4.4680    3.2575   -0.3259 C   0  0  0  0  0  0  0  0  0  0  0  0
   -4.1854    4.7159   -0.3539 C   0  0  0  0  0  0  0  0  0  0  0  0
   -4.0380    5.4792    0.7931 O   0  0  0  0  0  0  0  0  0  0  0  0
   -4.0666    5.3268   -1.4562 O   0  0  0  0  0  0  0  0  0  0  0  0
    2.5532    1.7147    2.9593 H   0  0  0  0  0  0  0  0  0  0  0  0
    2.7987   -1.6345    0.5113 H   0  0  0  0  0  0  0  0  0  0  0  0
    2.7070   -0.3857   -1.5318 H   0  0  0  0  0  0  0  0  0  0  0  0
    2.6008    1.2028   -0.6596 H   0  0  0  0  0  0  0  0  0  0  0  0
    4.3922    1.9336    0.7753 H   0  0  0  0  0  0  0  0  0  0  0  0
    6.8035    1.9335    1.1319 H   0  0  0  0  0  0  0  0  0  0  0  0
    8.1767    0.1040    0.1697 H   0  0  0  0  0  0  0  0  0  0  0  0
    7.1043   -1.6870   -1.1278 H   0  0  0  0  0  0  0  0  0  0  0  0
    4.6913   -1.6726   -1.4735 H   0  0  0  0  0  0  0  0  0  0  0  0
    0.8208   -1.4901   -0.8157 H   0  0  0  0  0  0  0  0  0  0  0  0
    0.5767   -1.8595    0.9210 H   0  0  0  0  0  0  0  0  0  0  0  0
    0.4086    1.9063   -0.8341 H   0  0  0  0  0  0  0  0  0  0  0  0
   -1.3509    0.7093   -1.8259 H   0  0  0  0  0  0  0  0  0  0  0  0
   -2.6630   -1.1250   -2.4484 H   0  0  0  0  0  0  0  0  0  0  0  0
   -0.9609   -1.4911   -2.2158 H   0  0  0  0  0  0  0  0  0  0  0  0
   -4.3403   -1.7355   -0.6902 H   0  0  0  0  0  0  0  0  0  0  0  0
   -5.2055   -3.6734    0.5506 H   0  0  0  0  0  0  0  0  0  0  0  0
   -3.7539   -5.5367    1.1575 H   0  0  0  0  0  0  0  0  0  0  0  0
   -1.3597   -5.4287    0.4876 H   0  0  0  0  0  0  0  0  0  0  0  0
   -0.5332   -3.5493   -0.7396 H   0  0  0  0  0  0  0  0  0  0  0  0
   -3.7636    0.4384   -1.3905 H   0  0  0  0  0  0  0  0  0  0  0  0
   -3.3357    0.1728    0.3522 H   0  0  0  0  0  0  0  0  0  0  0  0
   -2.2252    2.6555   -2.4457 H   0  0  0  0  0  0  0  0  0  0  0  0
   -5.0464    3.0021    0.5606 H   0  0  0  0  0  0  0  0  0  0  0  0
   -4.9587    3.0007   -1.2880 H   0  0  0  0  0  0  0  0  0  0  0  0
   -3.1481    5.6362    1.2503 H   0  0  0  0  0  0  0  0  0  0  0  0
  1  2  1  0
  2  3  2  0
  2  4  1  0
  4  5  1  0
  5  6  1  0
  6  7  2  0
  7  8  1  0
  8  9  2  0
  9 10  1  0
 10 11  2  0
  4 12  1  0
 12 13  1  0
 13 14  1  0
 13 15  2  0
 13 16  1  0
 16 17  1  0
 17 18  1  0
 18 19  2  0
 19 20  1  0
 20 21  2  0
 21 22  1  0
 22 23  2  0
 16 24  1  0
 24 25  1  0
 25 26  1  0
 25 27  2  0
 25 28  1  0
 28 29  1  0
 29 30  1  0
 29 31  2  0
 11  6  1  0
 23 18  1  0
  1 32  1  0
  4 33  1  0
  5 34  1  0
  5 35  1  0
  7 36  1  0
  8 37  1  0
  9 38  1  0
 10 39  1  0
 11 40  1  0
 12 41  1  0
 12 42  1  0
 14 43  1  0
 16 44  1  0
 17 45  1  0
 17 46  1  0
 19 47  1  0
 20 48  1  0
 21 49  1  0
 22 50  1  0
 23 51  1  0
 24 52  1  0
 24 53  1  0
 26 54  1  0
 28 55  1  0
 28 56  1  0
 30 57  1  0
M  END
$$$$
[H]c1nc(N([H])c2c([H])c([H])c(-n3c([H])nc([H])c3[H])c([H])c2OC([H])([H])[H])nc2c1C([H])([H])C([H])([H])c1c(C(=O)N([H])[H])nn(C([H])([H])[H])c1-2
     RDKit          3D

 51 55  0  0  0  0  0  0  0  0999 V2000
   -3.9404   -3.3298   -0.4896 C   0  0  0  0  0  0  0  0  0  0  0  0
   -2.9197   -2.3699   -0.3048 O   0  0  0  0  0  0  0  0  0  0  0  0
   -3.2854   -1.0678   -0.0207 C   0  0  0  0  0  0  0  0  0  0  0  0
   -4.6010   -0.7025    0.0821 C   0  0  0  0  0  0  0  0  0  0  0  0
   -4.9973    0.5839    0.3635 C   0  0  0  0  0  0  0  0  0  0  0  0
   -3.9893    1.4950    0.5382 C   0  0  0  0  0  0  0  0  0  0  0  0
   -2.6353    1.1361    0.4360 C   0  0  0  0  0  0  0  0  0  0  0  0
   -2.2418   -0.1379    0.1573 C   0  0  0  0  0  0  0  0  0  0  0  0
   -0.9012   -0.5704    0.0397 N   0  0  0  0  0  0  0  0  0  0  0  0
    0.2760    0.1575    0.1723 C   0  0  0  0  0  0  0  0  0  0  0  0
    0.3433    1.4450    0.4450 N   0  0  0  0  0  0  0  0  0  0  0  0
    1.4514    2.1596    0.5758 C   0  0  0  0  0  0  0  0  0  0  0  0
    2.6868    1.4795    0.4073 C   0  0  0  0  0  0  0  0  0  0  0  0
    3.9253    2.2478    0.5319 C   0  0  0  0  0  0  0  0  0  0  0  0
    5.1669    1.4965    0.4158 C   0  0  0  0  0  0  0  0  0  0  0  0
    5.0837    0.0741    0.0955 C   0  0  0  0  0  0  0  0  0  0  0  0
    6.0790   -0.9005   -0.1276 C   0  0  0  0  0  0  0  0  0  0  0  0
    5.4329   -2.0265   -0.3689 N   0  0  0  0  0  0  0  0  0  0  0  0
    4.1287   -1.8803   -0.3248 N   0  0  0  0  0  0  0  0  0  0  0  0
    3.0906   -2.8575   -0.5296 C   0  0  0  0  0  0  0  0  0  0  0  0
    3.8986   -0.5819   -0.0378 C   0  0  0  0  0  0  0  0  0  0  0  0
    2.6362    0.1532    0.1264 C   0  0  0  0  0  0  0  0  0  0  0  0
    1.4576   -0.5218    0.0052 N   0  0  0  0  0  0  0  0  0  0  0  0
    7.5006   -0.6108   -0.0741 C   0  0  0  0  0  0  0  0  0  0  0  0
    7.9643    0.6900    0.2195 N   0  0  0  0  0  0  0  0  0  0  0  0
    8.3804   -1.4955   -0.2844 O   0  0  0  0  0  0  0  0  0  0  0  0
   -6.3536    0.9825    0.4742 N   0  0  0  0  0  0  0  0  0  0  0  0
   -7.4067    0.4076   -0.1351 C   0  0  0  0  0  0  0  0  0  0  0  0
   -8.5709    1.0527    0.1981 C   0  0  0  0  0  0  0  0  0  0  0  0
   -8.2091    2.0453    1.0323 N   0  0  0  0  0  0  0  0  0  0  0  0
   -6.8549    1.9981    1.1975 C   0  0  0  0  0  0  0  0  0  0  0  0
   -3.5653   -4.2865   -0.8844 H   0  0  0  0  0  0  0  0  0  0  0  0
   -4.5068   -3.4620    0.4671 H   0  0  0  0  0  0  0  0  0  0  0  0
   -4.7009   -2.9670   -1.2292 H   0  0  0  0  0  0  0  0  0  0  0  0
   -5.3894   -1.4342   -0.0586 H   0  0  0  0  0  0  0  0  0  0  0  0
   -4.2217    2.5248    0.7618 H   0  0  0  0  0  0  0  0  0  0  0  0
   -1.9004    1.9178    0.5883 H   0  0  0  0  0  0  0  0  0  0  0  0
   -0.8059   -1.6244   -0.1864 H   0  0  0  0  0  0  0  0  0  0  0  0
    1.4465    3.2106    0.7996 H   0  0  0  0  0  0  0  0  0  0  0  0
    3.9181    2.8310    1.5213 H   0  0  0  0  0  0  0  0  0  0  0  0
    3.9488    3.0727   -0.2672 H   0  0  0  0  0  0  0  0  0  0  0  0
    5.7353    1.6271    1.4096 H   0  0  0  0  0  0  0  0  0  0  0  0
    5.8332    2.0245   -0.3399 H   0  0  0  0  0  0  0  0  0  0  0  0
    3.5997   -3.8457   -0.6706 H   0  0  0  0  0  0  0  0  0  0  0  0
    2.4409   -2.6025   -1.3978 H   0  0  0  0  0  0  0  0  0  0  0  0
    2.5006   -2.9236    0.4153 H   0  0  0  0  0  0  0  0  0  0  0  0
    8.0406    0.9938    1.1990 H   0  0  0  0  0  0  0  0  0  0  0  0
    8.2302    1.3467   -0.5405 H   0  0  0  0  0  0  0  0  0  0  0  0
   -7.3446   -0.4548   -0.8036 H   0  0  0  0  0  0  0  0  0  0  0  0
   -9.5970    0.8305   -0.1298 H   0  0  0  0  0  0  0  0  0  0  0  0
   -6.2577    2.6699    1.8148 H   0  0  0  0  0  0  0  0  0  0  0  0
  1  2  1  0
  2  3  1  0
  3  4  2  0
  4  5  1  0
  5  6  2  0
  6  7  1  0
  7  8  2  0
  8  9  1  0
  9 10  1  0
 10 11  2  0
 11 12  1  0
 12 13  2  0
 13 14  1  0
 14 15  1  0
 15 16  1  0
 16 17  1  0
 17 18  2  0
 18 19  1  0
 19 20  1  0
 19 21  1  0
 21 22  1  0
 22 23  2  0
 17 24  1  0
 24 25  1  0
 24 26  2  0
  5 27  1  0
 27 28  1  0
 28 29  2  0
 29 30  1  0
 30 31  2  0
  8  3  1  0
 23 10  1  0
 31 27  1  0
 22 13  1  0
 21 16  2  0
  1 32  1  0
  1 33  1  0
  1 34  1  0
  4 35  1  0
  6 36  1  0
  7 37  1  0
  9 38  1  0
 12 39  1  0
 14 40  1  0
 14 41  1  0
 15 42  1  0
 15 43  1  0
 20 44  1  0
 20 45  1  0
 20 46  1  0
 25 47  1  0
 25 48  1  0
 28 49  1  0
 29 50  1  0
 31 51  1  0
M  END
$$$$
[H]c1nc2sc(C([H])([H])[H])c([H])c2c(N([H])c2c([H])c([H])c3c(c([H])c([H])n3[H])c2C([H])([H])[H])c1C#N
     RDKit          3D

 37 40  0  0  0  0  0  0  0  0999 V2000
   -1.9446    0.1741   -2.3902 C   0  0  0  0  0  0  0  0  0  0  0  0
   -1.9024    0.0499   -0.8945 C   0  0  0  0  0  0  0  0  0  0  0  0
   -0.7713   -0.3838   -0.2410 C   0  0  0  0  0  0  0  0  0  0  0  0
    0.3827   -0.7236   -0.9718 N   0  0  0  0  0  0  0  0  0  0  0  0
    1.5870   -1.1782   -0.3716 C   0  0  0  0  0  0  0  0  0  0  0  0
    1.7453   -2.5298   -0.1822 C   0  0  0  0  0  0  0  0  0  0  0  0
    2.8596   -3.0928    0.3854 C   0  0  0  0  0  0  0  0  0  0  0  0
    3.8246   -2.2343    0.7618 N   0  0  0  0  0  0  0  0  0  0  0  0
    3.6886   -0.9021    0.5845 C   0  0  0  0  0  0  0  0  0  0  0  0
    4.7192    0.4242    0.9515 S   0  0  0  0  0  0  0  0  0  0  0  0
    3.7356    1.6951    0.3843 C   0  0  0  0  0  0  0  0  0  0  0  0
    4.0398    3.1574    0.4012 C   0  0  0  0  0  0  0  0  0  0  0  0
    2.6254    1.0476   -0.0779 C   0  0  0  0  0  0  0  0  0  0  0  0
    2.6021   -0.2935    0.0260 C   0  0  0  0  0  0  0  0  0  0  0  0
    0.7108   -3.4744   -0.5837 C   0  0  0  0  0  0  0  0  0  0  0  0
   -0.1210   -4.2087   -0.9107 N   0  0  0  0  0  0  0  0  0  0  0  0
   -0.7733   -0.4850    1.1480 C   0  0  0  0  0  0  0  0  0  0  0  0
   -1.8992   -0.1544    1.8737 C   0  0  0  0  0  0  0  0  0  0  0  0
   -3.0525    0.2855    1.2383 C   0  0  0  0  0  0  0  0  0  0  0  0
   -4.2784    0.6722    1.6640 N   0  0  0  0  0  0  0  0  0  0  0  0
   -5.0472    1.0117    0.6107 C   0  0  0  0  0  0  0  0  0  0  0  0
   -4.2706    0.8298   -0.5194 C   0  0  0  0  0  0  0  0  0  0  0  0
   -3.0120    0.3723   -0.1326 C   0  0  0  0  0  0  0  0  0  0  0  0
   -2.8609    0.7010   -2.6523 H   0  0  0  0  0  0  0  0  0  0  0  0
   -2.0084   -0.8594   -2.8025 H   0  0  0  0  0  0  0  0  0  0  0  0
   -1.0236    0.6501   -2.7830 H   0  0  0  0  0  0  0  0  0  0  0  0
    0.3641   -0.6399   -2.0278 H   0  0  0  0  0  0  0  0  0  0  0  0
    2.9706   -4.1590    0.5283 H   0  0  0  0  0  0  0  0  0  0  0  0
    4.5271    3.4465    1.3470 H   0  0  0  0  0  0  0  0  0  0  0  0
    4.7384    3.4271   -0.4375 H   0  0  0  0  0  0  0  0  0  0  0  0
    3.0860    3.6872    0.2166 H   0  0  0  0  0  0  0  0  0  0  0  0
    1.8073    1.6639   -0.5119 H   0  0  0  0  0  0  0  0  0  0  0  0
    0.1231   -0.8297    1.6804 H   0  0  0  0  0  0  0  0  0  0  0  0
   -1.9454   -0.2179    2.9527 H   0  0  0  0  0  0  0  0  0  0  0  0
   -4.5705    0.6979    2.6699 H   0  0  0  0  0  0  0  0  0  0  0  0
   -6.0759    1.3624    0.6110 H   0  0  0  0  0  0  0  0  0  0  0  0
   -4.5804    1.0107   -1.5445 H   0  0  0  0  0  0  0  0  0  0  0  0
  1  2  1  0
  2  3  2  0
  3  4  1  0
  4  5  1  0
  5  6  2  0
  6  7  1  0
  7  8  2  0
  8  9  1  0
  9 10  1  0
 10 11  1  0
 11 12  1  0
 11 13  2  0
 13 14  1  0
  6 15  1  0
 15 16  3  0
  3 17  1  0
 17 18  2  0
 18 19  1  0
 19 20  1  0
 20 21  1  0
 21 22  2  0
 22 23  1  0
 23  2  1  0
 14  5  1  0
 23 19  2  0
 14  9  2  0
  1 24  1  0
  1 25  1  0
  1 26  1  0
  4 27  1  0
  7 28  1  0
 12 29  1  0
 12 30  1  0
 12 31  1  0
 13 32  1  0
 17 33  1  0
 18 34  1  0
 20 35  1  0
 21 36  1  0
 22 37  1  0
M  END
$$$$
[H]c1c(Cl)c([H])c2c(C3=C(c4c([H])n([H])c5c([H])c([H])c([H])c([H])c45)C(=O)N([H])C3=O)nc(N3C([H])([H])C([H])([H])N(C([H])([H])[H])C([H])([H])C3([H])[H])nc2c1[H]
     RDKit          3D

 55 60  0  0  0  0  0  0  0  0999 V2000
   -5.4461    2.9529   -0.1495 C   0  0  0  0  0  0  0  0  0  0  0  0
   -4.7580    1.7338   -0.4832 N   0  0  0  0  0  0  0  0  0  0  0  0
   -4.7263    0.7676    0.5625 C   0  0  0  0  0  0  0  0  0  0  0  0
   -3.3632    0.7197    1.2313 C   0  0  0  0  0  0  0  0  0  0  0  0
   -2.3907    0.3339    0.2412 N   0  0  0  0  0  0  0  0  0  0  0  0
   -2.5215    0.8667   -1.0941 C   0  0  0  0  0  0  0  0  0  0  0  0
   -3.5458    1.9439   -1.2004 C   0  0  0  0  0  0  0  0  0  0  0  0
   -1.3125   -0.5450    0.5148 C   0  0  0  0  0  0  0  0  0  0  0  0
   -0.4227   -0.9096   -0.4117 N   0  0  0  0  0  0  0  0  0  0  0  0
    0.6084   -1.7621   -0.1170 C   0  0  0  0  0  0  0  0  0  0  0  0
    1.5379   -2.1384   -1.1776 C   0  0  0  0  0  0  0  0  0  0  0  0
    2.2929   -1.2998   -1.8940 C   0  0  0  0  0  0  0  0  0  0  0  0
    3.0862   -2.0903   -2.8774 C   0  0  0  0  0  0  0  0  0  0  0  0
    3.9059   -1.5714   -3.7011 O   0  0  0  0  0  0  0  0  0  0  0  0
    2.7628   -3.4527   -2.7191 N   0  0  0  0  0  0  0  0  0  0  0  0
    1.8069   -3.5040   -1.6767 C   0  0  0  0  0  0  0  0  0  0  0  0
    1.2382   -4.5367   -1.2123 O   0  0  0  0  0  0  0  0  0  0  0  0
    2.4255    0.1445   -1.8128 C   0  0  0  0  0  0  0  0  0  0  0  0
    2.2204    1.0261   -2.8869 C   0  0  0  0  0  0  0  0  0  0  0  0
    2.4574    2.2846   -2.4919 N   0  0  0  0  0  0  0  0  0  0  0  0
    2.8096    2.2543   -1.2025 C   0  0  0  0  0  0  0  0  0  0  0  0
    3.1574    3.3071   -0.3747 C   0  0  0  0  0  0  0  0  0  0  0  0
    3.5042    3.0327    0.9327 C   0  0  0  0  0  0  0  0  0  0  0  0
    3.4962    1.7286    1.3776 C   0  0  0  0  0  0  0  0  0  0  0  0
    3.1489    0.6780    0.5523 C   0  0  0  0  0  0  0  0  0  0  0  0
    2.7972    0.9237   -0.7560 C   0  0  0  0  0  0  0  0  0  0  0  0
    0.6818   -2.2181    1.1780 C   0  0  0  0  0  0  0  0  0  0  0  0
    1.7087   -3.0492    1.5584 C   0  0  0  0  0  0  0  0  0  0  0  0
    1.7578   -3.4672    2.8834 C   0  0  0  0  0  0  0  0  0  0  0  0
    3.0824   -4.5285    3.3254 Cl  0  0  0  0  0  0  0  0  0  0  0  0
    0.8317   -3.0894    3.8317 C   0  0  0  0  0  0  0  0  0  0  0  0
   -0.1979   -2.2519    3.4517 C   0  0  0  0  0  0  0  0  0  0  0  0
   -0.2460   -1.8389    2.1437 C   0  0  0  0  0  0  0  0  0  0  0  0
   -1.2298   -1.0056    1.7894 N   0  0  0  0  0  0  0  0  0  0  0  0
   -5.3595    3.2034    0.9375 H   0  0  0  0  0  0  0  0  0  0  0  0
   -6.5258    2.8268   -0.3983 H   0  0  0  0  0  0  0  0  0  0  0  0
   -4.9881    3.7883   -0.7252 H   0  0  0  0  0  0  0  0  0  0  0  0
   -4.9470   -0.2501    0.1826 H   0  0  0  0  0  0  0  0  0  0  0  0
   -5.4587    1.0371    1.3522 H   0  0  0  0  0  0  0  0  0  0  0  0
   -3.1047    1.7023    1.6648 H   0  0  0  0  0  0  0  0  0  0  0  0
   -3.4416   -0.0559    2.0332 H   0  0  0  0  0  0  0  0  0  0  0  0
   -2.7121    0.0040   -1.7902 H   0  0  0  0  0  0  0  0  0  0  0  0
   -1.5327    1.3265   -1.3905 H   0  0  0  0  0  0  0  0  0  0  0  0
   -3.0665    2.9019   -0.8738 H   0  0  0  0  0  0  0  0  0  0  0  0
   -3.8296    2.0069   -2.2917 H   0  0  0  0  0  0  0  0  0  0  0  0
    3.1260   -4.2665   -3.2356 H   0  0  0  0  0  0  0  0  0  0  0  0
    1.9174    0.6746   -3.8584 H   0  0  0  0  0  0  0  0  0  0  0  0
    2.3818    3.1381   -3.0818 H   0  0  0  0  0  0  0  0  0  0  0  0
    3.1693    4.3317   -0.7062 H   0  0  0  0  0  0  0  0  0  0  0  0
    3.7827    3.8285    1.6129 H   0  0  0  0  0  0  0  0  0  0  0  0
    3.7646    1.4928    2.3962 H   0  0  0  0  0  0  0  0  0  0  0  0
    3.1605   -0.3550    0.9097 H   0  0  0  0  0  0  0  0  0  0  0  0
    2.4743   -3.3402    0.8582 H   0  0  0  0  0  0  0  0  0  0  0  0
    0.9374   -3.4605    4.8523 H   0  0  0  0  0  0  0  0  0  0  0  0
   -0.9057   -1.9740    4.2170 H   0  0  0  0  0  0  0  0  0  0  0  0
  1  2  1  0
  2  3  1  0
  3  4  1  0
  4  5  1  0
  5  6  1  0
  6  7  1  0
  5  8  1  0
  8  9  2  0
  9 10  1  0
 10 11  1  0
 11 12  2  0
 12 13  1  0
 13 14  2  0
 13 15  1  0
 15 16  1  0
 16 17  2  0
 12 18  1  0
 18 19  2  0
 19 20  1  0
 20 21  1  0
 21 22  2  0
 22 23  1  0
 23 24  2  0
 24 25  1  0
 25 26  2  0
 10 27  2  0
 27 28  1  0
 28 29  2  0
 29 30  1  0
 29 31  1  0
 31 32  2  0
 32 33  1  0
 33 34  2  0
  7  2  1  0
 34  8  1  0
 16 11  1  0
 26 18  1  0
 33 27  1  0
 26 21  1  0
  1 35  1  0
  1 36  1  0
  1 37  1  0
  3 38  1  0
  3 39  1  0
  4 40  1  0
  4 41  1  0
  6 42  1  0
  6 43  1  0
  7 44  1  0
  7 45  1  0
 15 46  1  0
 19 47  1  0
 20 48  1  0
 22 49  1  0
 23 50  1  0
 24 51  1  0
 25 52  1  0
 28 53  1  0
 31 54  1  0
 32 55  1  0
M  END
$$$$
[H]c1nc(N([H])c2c([H])c([H])c(N3C([H])([H])C([H])([H])C([H])(N4C([H])([H])C([H])([H])C([H])([H])C4([H])[H])C([H])([H])C3([H])[H])c([H])c2OC([H])([H])[H])nc(N([H])c2c([H])c([H])c([H])c([H])c2S(=O)(=O)C([H])(C([H])([H])[H])C([H])([H])[H])c1Cl
     RDKit          3D

 77 81  0  0  0  0  0  0  0  0999 V2000
    0.8444    1.1735   -3.4882 C   0  0  0  0  0  0  0  0  0  0  0  0
    0.1439    0.9247   -2.3025 O   0  0  0  0  0  0  0  0  0  0  0  0
    0.7822    0.3868   -1.2119 C   0  0  0  0  0  0  0  0  0  0  0  0
    2.1247    0.0964   -1.3057 C   0  0  0  0  0  0  0  0  0  0  0  0
    2.8153   -0.4444   -0.2422 C   0  0  0  0  0  0  0  0  0  0  0  0
    2.1684   -0.7054    0.9431 C   0  0  0  0  0  0  0  0  0  0  0  0
    0.8041   -0.4045    1.0222 C   0  0  0  0  0  0  0  0  0  0  0  0
    0.0946    0.1289   -0.0087 C   0  0  0  0  0  0  0  0  0  0  0  0
   -1.2782    0.4436    0.0285 N   0  0  0  0  0  0  0  0  0  0  0  0
   -2.2158    0.2947    1.0523 C   0  0  0  0  0  0  0  0  0  0  0  0
   -1.9079   -0.2100    2.2386 N   0  0  0  0  0  0  0  0  0  0  0  0
   -2.7961   -0.3635    3.2240 C   0  0  0  0  0  0  0  0  0  0  0  0
   -4.0813    0.0263    2.9742 C   0  0  0  0  0  0  0  0  0  0  0  0
   -5.2951   -0.1412    4.2182 Cl  0  0  0  0  0  0  0  0  0  0  0  0
   -4.4529    0.5671    1.7291 C   0  0  0  0  0  0  0  0  0  0  0  0
   -5.7836    0.9344    1.4634 N   0  0  0  0  0  0  0  0  0  0  0  0
   -6.3139    1.5195    0.2955 C   0  0  0  0  0  0  0  0  0  0  0  0
   -5.5606    2.1541   -0.6571 C   0  0  0  0  0  0  0  0  0  0  0  0
   -6.0806    2.8280   -1.7613 C   0  0  0  0  0  0  0  0  0  0  0  0
   -7.4338    2.8623   -1.9097 C   0  0  0  0  0  0  0  0  0  0  0  0
   -8.2187    2.2364   -0.9751 C   0  0  0  0  0  0  0  0  0  0  0  0
   -7.6979    1.5567    0.1348 C   0  0  0  0  0  0  0  0  0  0  0  0
   -8.8110    0.7276    1.1504 S   0  0  0  0  0  0  0  0  0  0  0  0
   -8.7176    1.1212    2.6121 O   0  0  0  0  0  0  0  0  0  0  0  0
  -10.2307    1.2112    0.7746 O   0  0  0  0  0  0  0  0  0  0  0  0
   -8.8787   -1.0165    0.9527 C   0  0  0  0  0  0  0  0  0  0  0  0
   -7.6434   -1.7952    1.1622 C   0  0  0  0  0  0  0  0  0  0  0  0
   -9.4496   -1.2951   -0.4370 C   0  0  0  0  0  0  0  0  0  0  0  0
   -3.4913    0.6665    0.8456 N   0  0  0  0  0  0  0  0  0  0  0  0
    4.1960   -0.7607   -0.3178 N   0  0  0  0  0  0  0  0  0  0  0  0
    4.9336   -1.1733    0.8819 C   0  0  0  0  0  0  0  0  0  0  0  0
    6.4199   -1.1596    0.6163 C   0  0  0  0  0  0  0  0  0  0  0  0
    6.8115    0.1552   -0.0512 C   0  0  0  0  0  0  0  0  0  0  0  0
    6.0206    0.3973   -1.2880 C   0  0  0  0  0  0  0  0  0  0  0  0
    4.9953   -0.7223   -1.5248 C   0  0  0  0  0  0  0  0  0  0  0  0
    8.2232    0.2736   -0.2312 N   0  0  0  0  0  0  0  0  0  0  0  0
    8.8279   -0.6885   -1.0738 C   0  0  0  0  0  0  0  0  0  0  0  0
    9.5633   -1.6898   -0.2068 C   0  0  0  0  0  0  0  0  0  0  0  0
    9.6882   -0.9817    1.1154 C   0  0  0  0  0  0  0  0  0  0  0  0
    8.9705    0.3394    0.9746 C   0  0  0  0  0  0  0  0  0  0  0  0
    1.2786    0.2534   -3.9436 H   0  0  0  0  0  0  0  0  0  0  0  0
    0.2521    1.7597   -4.2252 H   0  0  0  0  0  0  0  0  0  0  0  0
    1.7405    1.8297   -3.2721 H   0  0  0  0  0  0  0  0  0  0  0  0
    2.6405    0.3088   -2.2572 H   0  0  0  0  0  0  0  0  0  0  0  0
    2.7020   -1.1359    1.8005 H   0  0  0  0  0  0  0  0  0  0  0  0
    0.3661   -0.6318    1.9705 H   0  0  0  0  0  0  0  0  0  0  0  0
   -1.7003    0.8770   -0.8818 H   0  0  0  0  0  0  0  0  0  0  0  0
   -2.5090   -0.7756    4.1686 H   0  0  0  0  0  0  0  0  0  0  0  0
   -6.4448    0.7483    2.2946 H   0  0  0  0  0  0  0  0  0  0  0  0
   -4.4875    2.1799   -0.5950 H   0  0  0  0  0  0  0  0  0  0  0  0
   -5.4582    3.3165   -2.4921 H   0  0  0  0  0  0  0  0  0  0  0  0
   -7.9369    3.3599   -2.7309 H   0  0  0  0  0  0  0  0  0  0  0  0
   -9.3145    2.2697   -1.1049 H   0  0  0  0  0  0  0  0  0  0  0  0
   -9.6419   -1.3897    1.6818 H   0  0  0  0  0  0  0  0  0  0  0  0
   -6.8736   -1.6188    0.3769 H   0  0  0  0  0  0  0  0  0  0  0  0
   -7.8590   -2.9107    1.0478 H   0  0  0  0  0  0  0  0  0  0  0  0
   -7.1554   -1.6284    2.1419 H   0  0  0  0  0  0  0  0  0  0  0  0
   -8.6222   -1.3689   -1.1571 H   0  0  0  0  0  0  0  0  0  0  0  0
  -10.1824   -0.5193   -0.6655 H   0  0  0  0  0  0  0  0  0  0  0  0
   -9.9573   -2.2694   -0.3724 H   0  0  0  0  0  0  0  0  0  0  0  0
    4.6355   -2.2205    1.0843 H   0  0  0  0  0  0  0  0  0  0  0  0
    4.6564   -0.5745    1.7660 H   0  0  0  0  0  0  0  0  0  0  0  0
    6.9138   -1.2598    1.6106 H   0  0  0  0  0  0  0  0  0  0  0  0
    6.7068   -2.0371    0.0389 H   0  0  0  0  0  0  0  0  0  0  0  0
    6.5190    0.9496    0.6967 H   0  0  0  0  0  0  0  0  0  0  0  0
    5.4138    1.3290   -1.2316 H   0  0  0  0  0  0  0  0  0  0  0  0
    6.6594    0.5251   -2.2015 H   0  0  0  0  0  0  0  0  0  0  0  0
    5.5071   -1.7091   -1.5693 H   0  0  0  0  0  0  0  0  0  0  0  0
    4.4546   -0.5000   -2.4387 H   0  0  0  0  0  0  0  0  0  0  0  0
    9.5960   -0.1824   -1.6990 H   0  0  0  0  0  0  0  0  0  0  0  0
    8.1431   -1.1934   -1.7799 H   0  0  0  0  0  0  0  0  0  0  0  0
    9.0162   -2.6556   -0.1333 H   0  0  0  0  0  0  0  0  0  0  0  0
   10.5501   -1.9363   -0.6537 H   0  0  0  0  0  0  0  0  0  0  0  0
    9.3099   -1.5809    1.9603 H   0  0  0  0  0  0  0  0  0  0  0  0
   10.7892   -0.8438    1.3002 H   0  0  0  0  0  0  0  0  0  0  0  0
    9.7787    1.1139    0.8224 H   0  0  0  0  0  0  0  0  0  0  0  0
    8.4248    0.6477    1.8661 H   0  0  0  0  0  0  0  0  0  0  0  0
  1  2  1  0
  2  3  1  0
  3  4  2  0
  4  5  1  0
  5  6  2  0
  6  7  1  0
  7  8  2  0
  8  9  1  0
  9 10  1  0
 10 11  2  0
 11 12  1  0
 12 13  2  0
 13 14  1  0
 13 15  1  0
 15 16  1  0
 16 17  1  0
 17 18  2  0
 18 19  1  0
 19 20  2  0
 20 21  1  0
 21 22  2  0
 22 23  1  0
 23 24  2  0
 23 25  2  0
 23 26  1  0
 26 27  1  0
 26 28  1  0
 15 29  2  0
  5 30  1  0
 30 31  1  0
 31 32  1  0
 32 33  1  0
 33 34  1  0
 34 35  1  0
 33 36  1  0
 36 37  1  0
 37 38  1  0
 38 39  1  0
 39 40  1  0
  8  3  1  0
 29 10  1  0
 35 30  1  0
 40 36  1  0
 22 17  1  0
  1 41  1  0
  1 42  1  0
  1 43  1  0
  4 44  1  0
  6 45  1  0
  7 46  1  0
  9 47  1  0
 12 48  1  0
 16 49  1  0
 18 50  1  0
 19 51  1  0
 20 52  1  0
 21 53  1  0
 26 54  1  0
 27 55  1  0
 27 56  1  0
 27 57  1  0
 28 58  1  0
 28 59  1  0
 28 60  1  0
 31 61  1  0
 31 62  1  0
 32 63  1  0
 32 64  1  0
 33 65  1  0
 34 66  1  0
 34 67  1  0
 35 68  1  0
 35 69  1  0
 37 70  1  0
 37 71  1  0
 38 72  1  0
 38 73  1  0
 39 74  1  0
 39 75  1  0
 40 76  1  0
 40 77  1  0
M  END
$$$$
[H]OC(=O)C([H])(C(=O)O[H])N([H])S(=O)(=O)c1c([H])c([H])c(C(C([H])([H])[H])(C([H])([H])[H])C([H])([H])[H])c([H])c1[H]
     RDKit          3D

 38 38  0  0  0  0  0  0  0  0999 V2000
   -3.8353   -1.4187    1.3681 C   0  0  0  0  0  0  0  0  0  0  0  0
   -3.4250   -0.2121    0.5441 C   0  0  0  0  0  0  0  0  0  0  0  0
   -4.3851   -0.1735   -0.6303 C   0  0  0  0  0  0  0  0  0  0  0  0
   -3.5390    1.0857    1.3333 C   0  0  0  0  0  0  0  0  0  0  0  0
   -2.0507   -0.4287    0.0295 C   0  0  0  0  0  0  0  0  0  0  0  0
   -1.0383   -1.0488    0.7248 C   0  0  0  0  0  0  0  0  0  0  0  0
    0.2310   -1.2201    0.1885 C   0  0  0  0  0  0  0  0  0  0  0  0
    0.5562   -0.7805   -1.0742 C   0  0  0  0  0  0  0  0  0  0  0  0
   -0.4615   -0.1475   -1.7975 C   0  0  0  0  0  0  0  0  0  0  0  0
   -1.7066    0.0131   -1.2530 C   0  0  0  0  0  0  0  0  0  0  0  0
    2.1048   -1.0089   -1.8342 S   0  0  0  0  0  0  0  0  0  0  0  0
    2.6718   -2.3796   -1.4880 O   0  0  0  0  0  0  0  0  0  0  0  0
    1.8801   -1.0444   -3.3361 O   0  0  0  0  0  0  0  0  0  0  0  0
    3.2140    0.1433   -1.3821 N   0  0  0  0  0  0  0  0  0  0  0  0
    3.6208    0.2784   -0.0470 C   0  0  0  0  0  0  0  0  0  0  0  0
    3.6096    1.6833    0.3991 C   0  0  0  0  0  0  0  0  0  0  0  0
    4.2862    2.0567    1.5324 O   0  0  0  0  0  0  0  0  0  0  0  0
    2.9805    2.5309   -0.2736 O   0  0  0  0  0  0  0  0  0  0  0  0
    5.0286   -0.3215    0.1300 C   0  0  0  0  0  0  0  0  0  0  0  0
    5.5428   -0.2631    1.4074 O   0  0  0  0  0  0  0  0  0  0  0  0
    5.5912   -0.8003   -0.8590 O   0  0  0  0  0  0  0  0  0  0  0  0
   -4.9160   -1.5189    1.4331 H   0  0  0  0  0  0  0  0  0  0  0  0
   -3.3778   -1.3066    2.3932 H   0  0  0  0  0  0  0  0  0  0  0  0
   -3.3302   -2.3148    0.9220 H   0  0  0  0  0  0  0  0  0  0  0  0
   -4.1304   -0.9641   -1.3455 H   0  0  0  0  0  0  0  0  0  0  0  0
   -4.4013    0.8090   -1.1256 H   0  0  0  0  0  0  0  0  0  0  0  0
   -5.4080   -0.4097   -0.2055 H   0  0  0  0  0  0  0  0  0  0  0  0
   -2.5467    1.4894    1.6266 H   0  0  0  0  0  0  0  0  0  0  0  0
   -4.0729    0.8777    2.2991 H   0  0  0  0  0  0  0  0  0  0  0  0
   -4.1211    1.8554    0.7938 H   0  0  0  0  0  0  0  0  0  0  0  0
   -1.2575   -1.4105    1.7518 H   0  0  0  0  0  0  0  0  0  0  0  0
    1.0160   -1.7075    0.7551 H   0  0  0  0  0  0  0  0  0  0  0  0
   -0.2141    0.2071   -2.7927 H   0  0  0  0  0  0  0  0  0  0  0  0
   -2.5104    0.5042   -1.7935 H   0  0  0  0  0  0  0  0  0  0  0  0
    3.6475    0.7489   -2.0686 H   0  0  0  0  0  0  0  0  0  0  0  0
    2.9759   -0.3839    0.6016 H   0  0  0  0  0  0  0  0  0  0  0  0
    5.2880    2.2671    1.4222 H   0  0  0  0  0  0  0  0  0  0  0  0
    6.4826   -0.5800    1.6506 H   0  0  0  0  0  0  0  0  0  0  0  0
  1  2  1  0
  2  3  1  0
  2  4  1  0
  2  5  1  0
  5  6  2  0
  6  7  1  0
  7  8  2  0
  8  9  1  0
  9 10  2  0
  8 11  1  0
 11 12  2  0
 11 13  2  0
 11 14  1  0
 14 15  1  0
 15 16  1  0
 16 17  1  0
 16 18  2  0
 15 19  1  0
 19 20  1  0
 19 21  2  0
 10  5  1  0
  1 22  1  0
  1 23  1  0
  1 24  1  0
  3 25  1  0
  3 26  1  0
  3 27  1  0
  4 28  1  0
  4 29  1  0
  4 30  1  0
  6 31  1  0
  7 32  1  0
  9 33  1  0
 10 34  1  0
 14 35  1  0
 15 36  1  0
 17 37  1  0
 20 38  1  0
M  END
$$$$
[H]/C(C(=O)N([H])c1c(OC([H])([H])[H])c([H])c2nc([H])nc(N([H])c3c([H])c([H])c(F)c(Cl)c3[H])c2c1[H])=C(/[H])C([H])([H])N1C([H])([H])C([H])([H])C([H])([H])C([H])([H])C1([H])[H]
     RDKit          3D

 58 61  0  0  0  0  0  0  0  0999 V2000
    0.3340    1.7228   -4.3122 C   0  0  0  0  0  0  0  0  0  0  0  0
    0.3052    1.3862   -2.9598 O   0  0  0  0  0  0  0  0  0  0  0  0
   -0.8827    0.9672   -2.3835 C   0  0  0  0  0  0  0  0  0  0  0  0
   -2.0240    0.8834   -3.1338 C   0  0  0  0  0  0  0  0  0  0  0  0
   -3.1924    0.4657   -2.5446 C   0  0  0  0  0  0  0  0  0  0  0  0
   -4.3053    0.3936   -3.3026 N   0  0  0  0  0  0  0  0  0  0  0  0
   -5.4382   -0.0133   -2.7130 C   0  0  0  0  0  0  0  0  0  0  0  0
   -5.4888   -0.3371   -1.4387 N   0  0  0  0  0  0  0  0  0  0  0  0
   -4.4169   -0.2934   -0.6038 C   0  0  0  0  0  0  0  0  0  0  0  0
   -4.5065   -0.6757    0.7428 N   0  0  0  0  0  0  0  0  0  0  0  0
   -5.6323   -1.0880    1.4642 C   0  0  0  0  0  0  0  0  0  0  0  0
   -5.4741   -1.8363    2.6412 C   0  0  0  0  0  0  0  0  0  0  0  0
   -6.5220   -2.2580    3.4133 C   0  0  0  0  0  0  0  0  0  0  0  0
   -7.8068   -1.9524    3.0497 C   0  0  0  0  0  0  0  0  0  0  0  0
   -8.8723   -2.3443    3.7754 F   0  0  0  0  0  0  0  0  0  0  0  0
   -8.0038   -1.2220    1.9055 C   0  0  0  0  0  0  0  0  0  0  0  0
   -9.6483   -0.8310    1.4420 Cl  0  0  0  0  0  0  0  0  0  0  0  0
   -6.9191   -0.7941    1.1206 C   0  0  0  0  0  0  0  0  0  0  0  0
   -3.2433    0.1255   -1.2024 C   0  0  0  0  0  0  0  0  0  0  0  0
   -2.0625    0.2315   -0.5037 C   0  0  0  0  0  0  0  0  0  0  0  0
   -0.8549    0.6395   -1.0149 C   0  0  0  0  0  0  0  0  0  0  0  0
    0.3592    0.7507   -0.2885 N   0  0  0  0  0  0  0  0  0  0  0  0
    0.5967    0.4795    1.0577 C   0  0  0  0  0  0  0  0  0  0  0  0
   -0.2892    0.0679    1.8800 O   0  0  0  0  0  0  0  0  0  0  0  0
    1.9161    0.6467    1.6653 C   0  0  0  0  0  0  0  0  0  0  0  0
    2.9334    1.0572    0.9778 C   0  0  0  0  0  0  0  0  0  0  0  0
    4.2973    1.2292    1.6089 C   0  0  0  0  0  0  0  0  0  0  0  0
    5.1894    0.3656    0.9104 N   0  0  0  0  0  0  0  0  0  0  0  0
    4.9685   -1.0313    1.1009 C   0  0  0  0  0  0  0  0  0  0  0  0
    5.6748   -1.8096    0.0193 C   0  0  0  0  0  0  0  0  0  0  0  0
    7.1315   -1.4478   -0.0369 C   0  0  0  0  0  0  0  0  0  0  0  0
    7.2765    0.0308   -0.2241 C   0  0  0  0  0  0  0  0  0  0  0  0
    6.5607    0.7614    0.8900 C   0  0  0  0  0  0  0  0  0  0  0  0
    0.1246    0.8361   -4.9617 H   0  0  0  0  0  0  0  0  0  0  0  0
    1.3283    2.1216   -4.6165 H   0  0  0  0  0  0  0  0  0  0  0  0
   -0.4095    2.4991   -4.5754 H   0  0  0  0  0  0  0  0  0  0  0  0
   -1.9908    1.1484   -4.1892 H   0  0  0  0  0  0  0  0  0  0  0  0
   -6.3812   -0.0932   -3.2780 H   0  0  0  0  0  0  0  0  0  0  0  0
   -3.6075   -0.6538    1.3038 H   0  0  0  0  0  0  0  0  0  0  0  0
   -4.4485   -2.0776    2.9270 H   0  0  0  0  0  0  0  0  0  0  0  0
   -6.3699   -2.8368    4.3197 H   0  0  0  0  0  0  0  0  0  0  0  0
   -7.1970   -0.2194    0.2593 H   0  0  0  0  0  0  0  0  0  0  0  0
   -2.0941   -0.0240    0.5213 H   0  0  0  0  0  0  0  0  0  0  0  0
    1.1969    1.0912   -0.8731 H   0  0  0  0  0  0  0  0  0  0  0  0
    2.0743    0.4235    2.7362 H   0  0  0  0  0  0  0  0  0  0  0  0
    2.9039    1.3024   -0.0579 H   0  0  0  0  0  0  0  0  0  0  0  0
    4.5928    2.2742    1.3973 H   0  0  0  0  0  0  0  0  0  0  0  0
    4.2545    1.0651    2.6985 H   0  0  0  0  0  0  0  0  0  0  0  0
    5.2681   -1.4054    2.1023 H   0  0  0  0  0  0  0  0  0  0  0  0
    3.8803   -1.2291    0.9840 H   0  0  0  0  0  0  0  0  0  0  0  0
    5.5691   -2.8840    0.1865 H   0  0  0  0  0  0  0  0  0  0  0  0
    5.2325   -1.5344   -0.9634 H   0  0  0  0  0  0  0  0  0  0  0  0
    7.6297   -1.7949    0.8983 H   0  0  0  0  0  0  0  0  0  0  0  0
    7.5808   -1.9495   -0.9194 H   0  0  0  0  0  0  0  0  0  0  0  0
    6.8406    0.2987   -1.2100 H   0  0  0  0  0  0  0  0  0  0  0  0
    8.3639    0.2748   -0.1917 H   0  0  0  0  0  0  0  0  0  0  0  0
    6.6032    1.8425    0.6605 H   0  0  0  0  0  0  0  0  0  0  0  0
    7.0952    0.6132    1.8396 H   0  0  0  0  0  0  0  0  0  0  0  0
  1  2  1  0
  2  3  1  0
  3  4  2  0
  4  5  1  0
  5  6  2  0
  6  7  1  0
  7  8  2  0
  8  9  1  0
  9 10  1  0
 10 11  1  0
 11 12  2  0
 12 13  1  0
 13 14  2  0
 14 15  1  0
 14 16  1  0
 16 17  1  0
 16 18  2  0
  9 19  2  0
 19 20  1  0
 20 21  2  0
 21 22  1  0
 22 23  1  0
 23 24  2  0
 23 25  1  0
 25 26  2  0
 26 27  1  0
 27 28  1  0
 28 29  1  0
 29 30  1  0
 30 31  1  0
 31 32  1  0
 32 33  1  0
 21  3  1  0
 33 28  1  0
 19  5  1  0
 18 11  1  0
  1 34  1  0
  1 35  1  0
  1 36  1  0
  4 37  1  0
  7 38  1  0
 10 39  1  0
 12 40  1  0
 13 41  1  0
 18 42  1  0
 20 43  1  0
 22 44  1  0
 25 45  1  0
 26 46  1  0
 27 47  1  0
 27 48  1  0
 29 49  1  0
 29 50  1  0
 30 51  1  0
 30 52  1  0
 31 53  1  0
 31 54  1  0
 32 55  1  0
 32 56  1  0
 33 57  1  0
 33 58  1  0
M  END
$$$$
[H]/C(C(=O)N([H])c1c(OC([H])([H])C([H])([H])[H])c([H])c2nc([H])c(C#N)c(N([H])c3c([H])c([H])c(OC([H])([H])c4nc([H])c([H])c([H])c4[H])c(Cl)c3[H])c2c1[H])=C(/[H])C([H])([H])N1C([H])([H])C([H])([H])C([H])([H])C([H])([H])C1([H])[H]
     RDKit          3D

 76 80  0  0  0  0  0  0  0  0999 V2000
   -3.7745   -2.7204   -2.1899 C   0  0  0  0  0  0  0  0  0  0  0  0
   -2.8109   -1.7655   -2.8906 C   0  0  0  0  0  0  0  0  0  0  0  0
   -1.9911   -1.1914   -1.9455 O   0  0  0  0  0  0  0  0  0  0  0  0
   -1.0890   -1.7488   -1.0892 C   0  0  0  0  0  0  0  0  0  0  0  0
   -0.8528   -3.0979   -1.0901 C   0  0  0  0  0  0  0  0  0  0  0  0
    0.0592   -3.6940   -0.2391 C   0  0  0  0  0  0  0  0  0  0  0  0
    0.2415   -5.0282   -0.2446 N   0  0  0  0  0  0  0  0  0  0  0  0
    1.0895   -5.6566    0.5831 C   0  0  0  0  0  0  0  0  0  0  0  0
    1.8137   -4.8892    1.4890 C   0  0  0  0  0  0  0  0  0  0  0  0
    2.6977   -5.5351    2.4068 C   0  0  0  0  0  0  0  0  0  0  0  0
    3.4172   -6.0355    3.1484 N   0  0  0  0  0  0  0  0  0  0  0  0
    1.6899   -3.5332    1.5574 C   0  0  0  0  0  0  0  0  0  0  0  0
    2.3073   -2.6460    2.4389 N   0  0  0  0  0  0  0  0  0  0  0  0
    3.5507   -2.0168    2.3885 C   0  0  0  0  0  0  0  0  0  0  0  0
    3.7038   -0.7541    2.9898 C   0  0  0  0  0  0  0  0  0  0  0  0
    4.9007   -0.0819    3.0301 C   0  0  0  0  0  0  0  0  0  0  0  0
    6.0218   -0.6738    2.4504 C   0  0  0  0  0  0  0  0  0  0  0  0
    7.2604   -0.0696    2.4580 O   0  0  0  0  0  0  0  0  0  0  0  0
    7.5587    1.1881    2.9632 C   0  0  0  0  0  0  0  0  0  0  0  0
    6.8217    2.2851    2.2545 C   0  0  0  0  0  0  0  0  0  0  0  0
    6.2857    2.1135    1.0049 C   0  0  0  0  0  0  0  0  0  0  0  0
    5.5951    3.1183    0.3360 C   0  0  0  0  0  0  0  0  0  0  0  0
    5.4516    4.3309    0.9664 C   0  0  0  0  0  0  0  0  0  0  0  0
    5.9972    4.4941    2.2287 C   0  0  0  0  0  0  0  0  0  0  0  0
    6.6616    3.5015    2.8520 N   0  0  0  0  0  0  0  0  0  0  0  0
    5.9105   -1.9122    1.8513 C   0  0  0  0  0  0  0  0  0  0  0  0
    7.3352   -2.6373    1.1242 Cl  0  0  0  0  0  0  0  0  0  0  0  0
    4.6712   -2.5627    1.8301 C   0  0  0  0  0  0  0  0  0  0  0  0
    0.7783   -2.9553    0.6521 C   0  0  0  0  0  0  0  0  0  0  0  0
    0.5513   -1.6089    0.6596 C   0  0  0  0  0  0  0  0  0  0  0  0
   -0.3739   -0.9288   -0.1852 C   0  0  0  0  0  0  0  0  0  0  0  0
   -0.6754    0.3322   -0.0301 N   0  0  0  0  0  0  0  0  0  0  0  0
   -0.9763    1.6879    0.1402 C   0  0  0  0  0  0  0  0  0  0  0  0
   -0.0783    2.5886    0.3817 O   0  0  0  0  0  0  0  0  0  0  0  0
   -2.3441    2.2510    0.0815 C   0  0  0  0  0  0  0  0  0  0  0  0
   -3.3717    1.4967   -0.0904 C   0  0  0  0  0  0  0  0  0  0  0  0
   -4.7713    2.0763   -0.1510 C   0  0  0  0  0  0  0  0  0  0  0  0
   -5.2959    1.7399   -1.4192 N   0  0  0  0  0  0  0  0  0  0  0  0
   -4.7313    2.3676   -2.5570 C   0  0  0  0  0  0  0  0  0  0  0  0
   -5.7794    3.3810   -3.0596 C   0  0  0  0  0  0  0  0  0  0  0  0
   -7.0078    2.6522   -3.5515 C   0  0  0  0  0  0  0  0  0  0  0  0
   -7.0640    1.2414   -2.9486 C   0  0  0  0  0  0  0  0  0  0  0  0
   -6.6173    1.2652   -1.5046 C   0  0  0  0  0  0  0  0  0  0  0  0
   -3.6921   -3.6885   -2.6857 H   0  0  0  0  0  0  0  0  0  0  0  0
   -4.8175   -2.3423   -2.2727 H   0  0  0  0  0  0  0  0  0  0  0  0
   -3.4992   -2.8295   -1.1288 H   0  0  0  0  0  0  0  0  0  0  0  0
   -3.4403   -0.9527   -3.3654 H   0  0  0  0  0  0  0  0  0  0  0  0
   -2.2775   -2.2944   -3.7114 H   0  0  0  0  0  0  0  0  0  0  0  0
   -1.3970   -3.7393   -1.7985 H   0  0  0  0  0  0  0  0  0  0  0  0
    1.2088   -6.7394    0.5471 H   0  0  0  0  0  0  0  0  0  0  0  0
    1.7207   -2.3976    3.3264 H   0  0  0  0  0  0  0  0  0  0  0  0
    2.7988   -0.3252    3.4308 H   0  0  0  0  0  0  0  0  0  0  0  0
    4.9497    0.8830    3.5153 H   0  0  0  0  0  0  0  0  0  0  0  0
    8.6402    1.3907    2.7718 H   0  0  0  0  0  0  0  0  0  0  0  0
    7.2989    1.2946    4.0500 H   0  0  0  0  0  0  0  0  0  0  0  0
    6.3763    1.1624    0.4695 H   0  0  0  0  0  0  0  0  0  0  0  0
    5.1897    2.9308   -0.6458 H   0  0  0  0  0  0  0  0  0  0  0  0
    4.9184    5.1366    0.4749 H   0  0  0  0  0  0  0  0  0  0  0  0
    5.8724    5.4745    2.7170 H   0  0  0  0  0  0  0  0  0  0  0  0
    4.6851   -3.5250    1.3258 H   0  0  0  0  0  0  0  0  0  0  0  0
    1.0950   -0.9817    1.3581 H   0  0  0  0  0  0  0  0  0  0  0  0
    0.6474    0.6797   -0.0471 H   0  0  0  0  0  0  0  0  0  0  0  0
   -2.5074    3.3355    0.1852 H   0  0  0  0  0  0  0  0  0  0  0  0
   -3.3571    0.4223   -0.1860 H   0  0  0  0  0  0  0  0  0  0  0  0
   -4.7900    3.1430    0.1206 H   0  0  0  0  0  0  0  0  0  0  0  0
   -5.3307    1.5259    0.6348 H   0  0  0  0  0  0  0  0  0  0  0  0
   -3.8407    2.9757   -2.2905 H   0  0  0  0  0  0  0  0  0  0  0  0
   -4.4705    1.6359   -3.3252 H   0  0  0  0  0  0  0  0  0  0  0  0
   -6.0874    4.0336   -2.2056 H   0  0  0  0  0  0  0  0  0  0  0  0
   -5.3507    3.9355   -3.9058 H   0  0  0  0  0  0  0  0  0  0  0  0
   -6.9321    2.5116   -4.6353 H   0  0  0  0  0  0  0  0  0  0  0  0
   -7.8986    3.2072   -3.2192 H   0  0  0  0  0  0  0  0  0  0  0  0
   -6.3356    0.6355   -3.5115 H   0  0  0  0  0  0  0  0  0  0  0  0
   -8.1187    0.9057   -3.0528 H   0  0  0  0  0  0  0  0  0  0  0  0
   -7.3361    1.9664   -0.9846 H   0  0  0  0  0  0  0  0  0  0  0  0
   -6.6885    0.2612   -1.0362 H   0  0  0  0  0  0  0  0  0  0  0  0
  1  2  1  0
  2  3  1  0
  3  4  1  0
  4  5  2  0
  5  6  1  0
  6  7  2  0
  7  8  1  0
  8  9  2  0
  9 10  1  0
 10 11  3  0
  9 12  1  0
 12 13  1  0
 13 14  1  0
 14 15  2  0
 15 16  1  0
 16 17  2  0
 17 18  1  0
 18 19  1  0
 19 20  1  0
 20 21  2  0
 21 22  1  0
 22 23  2  0
 23 24  1  0
 24 25  2  0
 17 26  1  0
 26 27  1  0
 26 28  2  0
 12 29  2  0
 29 30  1  0
 30 31  2  0
 31 32  1  0
 32 33  1  0
 33 34  2  0
 33 35  1  0
 35 36  2  0
 36 37  1  0
 37 38  1  0
 38 39  1  0
 39 40  1  0
 40 41  1  0
 41 42  1  0
 42 43  1  0
 31  4  1  0
 43 38  1  0
 29  6  1  0
 28 14  1  0
 25 20  1  0
  1 44  1  0
  1 45  1  0
  1 46  1  0
  2 47  1  0
  2 48  1  0
  5 49  1  0
  8 50  1  0
 13 51  1  0
 15 52  1  0
 16 53  1  0
 19 54  1  0
 19 55  1  0
 21 56  1  0
 22 57  1  0
 23 58  1  0
 24 59  1  0
 28 60  1  0
 30 61  1  0
 32 62  1  0
 35 63  1  0
 36 64  1  0
 37 65  1  0
 37 66  1  0
 39 67  1  0
 39 68  1  0
 40 69  1  0
 40 70  1  0
 41 71  1  0
 41 72  1  0
 42 73  1  0
 42 74  1  0
 43 75  1  0
 43 76  1  0
M  END
$$$$
[H]OP(=O)(O[H])C(F)(F)c1c([H])c([H])c(-c2c([H])c([H])c(-c3c([H])c([H])c(-c4c(C([H])([H])c5c([H])c([H])c([H])c([H])c5[H])sc5c([H])c([H])c([H])c([H])c45)c([H])c3[H])c([H])c2[H])c([H])c1[H]
     RDKit          3D

 66 71  0  0  0  0  0  0  0  0999 V2000
    9.2413    1.8614    0.5787 O   0  0  0  0  0  0  0  0  0  0  0  0
    9.8191    0.2675    0.6608 P   0  0  0  0  0  0  0  0  0  0  0  0
    8.8148   -0.6685    1.6623 O   0  0  0  0  0  0  0  0  0  0  0  0
   11.2128    0.2321    1.1069 O   0  0  0  0  0  0  0  0  0  0  0  0
    9.6255   -0.4417   -1.0449 C   0  0  0  0  0  0  0  0  0  0  0  0
   10.1142   -1.6949   -1.1215 F   0  0  0  0  0  0  0  0  0  0  0  0
   10.1072    0.4752   -1.9146 F   0  0  0  0  0  0  0  0  0  0  0  0
    8.1058   -0.5286   -1.1322 C   0  0  0  0  0  0  0  0  0  0  0  0
    7.5076   -1.6043   -0.5436 C   0  0  0  0  0  0  0  0  0  0  0  0
    6.1061   -1.5576   -0.4361 C   0  0  0  0  0  0  0  0  0  0  0  0
    5.4090   -0.4704   -0.9090 C   0  0  0  0  0  0  0  0  0  0  0  0
    6.0621    0.5877   -1.5044 C   0  0  0  0  0  0  0  0  0  0  0  0
    7.4521    0.5424   -1.6142 C   0  0  0  0  0  0  0  0  0  0  0  0
    3.9736   -0.3890   -0.6970 C   0  0  0  0  0  0  0  0  0  0  0  0
    3.1742    0.3198   -1.5285 C   0  0  0  0  0  0  0  0  0  0  0  0
    1.8279    0.3816   -1.2543 C   0  0  0  0  0  0  0  0  0  0  0  0
    1.3177   -0.2774   -0.1630 C   0  0  0  0  0  0  0  0  0  0  0  0
    2.1096   -1.0035    0.6842 C   0  0  0  0  0  0  0  0  0  0  0  0
    3.4407   -1.0452    0.4022 C   0  0  0  0  0  0  0  0  0  0  0  0
   -0.0931   -0.1421    0.1205 C   0  0  0  0  0  0  0  0  0  0  0  0
   -0.7215   -1.2535    0.6750 C   0  0  0  0  0  0  0  0  0  0  0  0
   -2.0775   -1.1090    0.9843 C   0  0  0  0  0  0  0  0  0  0  0  0
   -2.7602    0.0657    0.7580 C   0  0  0  0  0  0  0  0  0  0  0  0
   -2.1058    1.1187    0.2245 C   0  0  0  0  0  0  0  0  0  0  0  0
   -0.7585    1.0418   -0.1087 C   0  0  0  0  0  0  0  0  0  0  0  0
   -4.1927    0.0908    1.1041 C   0  0  0  0  0  0  0  0  0  0  0  0
   -5.0823   -0.2966    0.1668 C   0  0  0  0  0  0  0  0  0  0  0  0
   -4.8732   -0.8410   -1.2446 C   0  0  0  0  0  0  0  0  0  0  0  0
   -6.1229   -0.4354   -2.0009 C   0  0  0  0  0  0  0  0  0  0  0  0
   -6.1420    0.6776   -2.7798 C   0  0  0  0  0  0  0  0  0  0  0  0
   -7.3395    1.0973   -3.3844 C   0  0  0  0  0  0  0  0  0  0  0  0
   -8.5060    0.4020   -3.2033 C   0  0  0  0  0  0  0  0  0  0  0  0
   -8.4408   -0.7277   -2.4021 C   0  0  0  0  0  0  0  0  0  0  0  0
   -7.2760   -1.1512   -1.8053 C   0  0  0  0  0  0  0  0  0  0  0  0
   -6.5983   -0.0250    0.9094 S   0  0  0  0  0  0  0  0  0  0  0  0
   -6.0462    0.5834    2.4058 C   0  0  0  0  0  0  0  0  0  0  0  0
   -6.7221    1.0044    3.5516 C   0  0  0  0  0  0  0  0  0  0  0  0
   -5.9833    1.4278    4.6727 C   0  0  0  0  0  0  0  0  0  0  0  0
   -4.6458    1.3709    4.5205 C   0  0  0  0  0  0  0  0  0  0  0  0
   -3.9556    0.9801    3.4299 C   0  0  0  0  0  0  0  0  0  0  0  0
   -4.6782    0.5468    2.2712 C   0  0  0  0  0  0  0  0  0  0  0  0
    8.2535    1.8767    0.7263 H   0  0  0  0  0  0  0  0  0  0  0  0
    8.1223   -0.1201    2.1133 H   0  0  0  0  0  0  0  0  0  0  0  0
    8.0208   -2.4573   -0.1637 H   0  0  0  0  0  0  0  0  0  0  0  0
    5.6107   -2.3958    0.0287 H   0  0  0  0  0  0  0  0  0  0  0  0
    5.5504    1.4380   -1.8888 H   0  0  0  0  0  0  0  0  0  0  0  0
    7.9943    1.3686   -2.0935 H   0  0  0  0  0  0  0  0  0  0  0  0
    3.5331    0.8500   -2.3784 H   0  0  0  0  0  0  0  0  0  0  0  0
    1.1840    0.9667   -1.9225 H   0  0  0  0  0  0  0  0  0  0  0  0
    1.6274   -1.4943    1.5241 H   0  0  0  0  0  0  0  0  0  0  0  0
    4.0986   -1.5987    1.0504 H   0  0  0  0  0  0  0  0  0  0  0  0
   -0.2572   -2.1900    0.8795 H   0  0  0  0  0  0  0  0  0  0  0  0
   -2.5778   -1.9787    1.4202 H   0  0  0  0  0  0  0  0  0  0  0  0
   -2.6601    2.0301    0.0674 H   0  0  0  0  0  0  0  0  0  0  0  0
   -0.1980    1.8861   -0.5221 H   0  0  0  0  0  0  0  0  0  0  0  0
   -4.8380   -1.9368   -1.1899 H   0  0  0  0  0  0  0  0  0  0  0  0
   -4.0015   -0.3378   -1.6489 H   0  0  0  0  0  0  0  0  0  0  0  0
   -5.2209    1.2472   -2.9323 H   0  0  0  0  0  0  0  0  0  0  0  0
   -7.3591    1.9924   -4.0155 H   0  0  0  0  0  0  0  0  0  0  0  0
   -9.4344    0.7375   -3.6714 H   0  0  0  0  0  0  0  0  0  0  0  0
   -9.3874   -1.2722   -2.2821 H   0  0  0  0  0  0  0  0  0  0  0  0
   -7.2544   -2.0423   -1.1768 H   0  0  0  0  0  0  0  0  0  0  0  0
   -7.7811    1.0039    3.6007 H   0  0  0  0  0  0  0  0  0  0  0  0
   -6.4552    1.7487    5.5583 H   0  0  0  0  0  0  0  0  0  0  0  0
   -3.9936    1.7015    5.3944 H   0  0  0  0  0  0  0  0  0  0  0  0
   -2.8760    1.0109    3.4257 H   0  0  0  0  0  0  0  0  0  0  0  0
  1  2  1  0
  2  3  1  0
  2  4  2  0
  2  5  1  0
  5  6  1  0
  5  7  1  0
  5  8  1  0
  8  9  2  0
  9 10  1  0
 10 11  2  0
 11 12  1  0
 12 13  2  0
 11 14  1  0
 14 15  2  0
 15 16  1  0
 16 17  2  0
 17 18  1  0
 18 19  2  0
 17 20  1  0
 20 21  2  0
 21 22  1  0
 22 23  2  0
 23 24  1  0
 24 25  2  0
 23 26  1  0
 26 27  2  0
 27 28  1  0
 28 29  1  0
 29 30  2  0
 30 31  1  0
 31 32  2  0
 32 33  1  0
 33 34  2  0
 27 35  1  0
 35 36  1  0
 36 37  2  0
 37 38  1  0
 38 39  2  0
 39 40  1  0
 40 41  2  0
 13  8  1  0
 19 14  1  0
 25 20  1  0
 41 26  1  0
 34 29  1  0
 41 36  1  0
  1 42  1  0
  3 43  1  0
  9 44  1  0
 10 45  1  0
 12 46  1  0
 13 47  1  0
 15 48  1  0
 16 49  1  0
 18 50  1  0
 19 51  1  0
 21 52  1  0
 22 53  1  0
 24 54  1  0
 25 55  1  0
 28 56  1  0
 28 57  1  0
 30 58  1  0
 31 59  1  0
 32 60  1  0
 33 61  1  0
 34 62  1  0
 37 63  1  0
 38 64  1  0
 39 65  1  0
 40 66  1  0
M  END
$$$$
[H]c1nc2c([H])c(OC([H])([H])C([H])([H])C([H])([H])N3C([H])([H])C([H])([H])C([H])([H])C3([H])[H])c(OC([H])([H])[H])c([H])c2c(Oc2c([H])c([H])c(N([H])C(=O)C3(C(=O)N([H])c4c([H])c([H])c(F)c([H])c4[H])C([H])([H])C3([H])[H])c([H])c2F)c1[H]
     RDKit          3D

 79 84  0  0  0  0  0  0  0  0999 V2000
    3.8302   -0.0691   -3.3168 C   0  0  0  0  0  0  0  0  0  0  0  0
    4.6497   -0.4182   -2.2188 O   0  0  0  0  0  0  0  0  0  0  0  0
    4.0655   -0.7075   -0.9793 C   0  0  0  0  0  0  0  0  0  0  0  0
    2.7038   -0.6652   -0.7796 C   0  0  0  0  0  0  0  0  0  0  0  0
    2.1805   -0.9596    0.4612 C   0  0  0  0  0  0  0  0  0  0  0  0
    0.7874   -0.9181    0.6667 C   0  0  0  0  0  0  0  0  0  0  0  0
    0.0317   -0.5716   -0.4221 O   0  0  0  0  0  0  0  0  0  0  0  0
   -1.3360   -0.4198   -0.3755 C   0  0  0  0  0  0  0  0  0  0  0  0
   -2.1111   -1.2947   -1.1247 C   0  0  0  0  0  0  0  0  0  0  0  0
   -3.5108   -1.1877   -1.1187 C   0  0  0  0  0  0  0  0  0  0  0  0
   -4.1675   -0.2317   -0.3847 C   0  0  0  0  0  0  0  0  0  0  0  0
   -5.5693   -0.0973   -0.3121 N   0  0  0  0  0  0  0  0  0  0  0  0
   -6.4406   -1.1674   -0.4417 C   0  0  0  0  0  0  0  0  0  0  0  0
   -5.9503   -2.3401   -0.6205 O   0  0  0  0  0  0  0  0  0  0  0  0
   -7.9298   -1.1425   -0.3986 C   0  0  0  0  0  0  0  0  0  0  0  0
   -8.5097   -1.9318   -1.5975 C   0  0  0  0  0  0  0  0  0  0  0  0
   -8.6996   -2.3541   -0.1472 C   0  0  0  0  0  0  0  0  0  0  0  0
   -8.6206    0.1857   -0.2605 C   0  0  0  0  0  0  0  0  0  0  0  0
   -8.0996    1.1688   -0.8790 O   0  0  0  0  0  0  0  0  0  0  0  0
   -9.7839    0.3112    0.5201 N   0  0  0  0  0  0  0  0  0  0  0  0
  -10.5689    1.4642    0.7610 C   0  0  0  0  0  0  0  0  0  0  0  0
  -10.3767    2.6451    0.1352 C   0  0  0  0  0  0  0  0  0  0  0  0
  -11.1598    3.7823    0.3923 C   0  0  0  0  0  0  0  0  0  0  0  0
  -12.1603    3.6868    1.3171 C   0  0  0  0  0  0  0  0  0  0  0  0
  -12.9512    4.7463    1.6112 F   0  0  0  0  0  0  0  0  0  0  0  0
  -12.3775    2.4821    1.9738 C   0  0  0  0  0  0  0  0  0  0  0  0
  -11.6028    1.4050    1.7013 C   0  0  0  0  0  0  0  0  0  0  0  0
   -3.3713    0.6452    0.3658 C   0  0  0  0  0  0  0  0  0  0  0  0
   -2.0062    0.5395    0.3574 C   0  0  0  0  0  0  0  0  0  0  0  0
   -1.2644    1.4364    1.0821 F   0  0  0  0  0  0  0  0  0  0  0  0
    0.2549   -1.2099    1.8925 C   0  0  0  0  0  0  0  0  0  0  0  0
    1.1166   -1.5496    2.9406 C   0  0  0  0  0  0  0  0  0  0  0  0
    2.4469   -1.5945    2.7661 N   0  0  0  0  0  0  0  0  0  0  0  0
    2.9636   -1.3020    1.5392 C   0  0  0  0  0  0  0  0  0  0  0  0
    4.3401   -1.3442    1.3348 C   0  0  0  0  0  0  0  0  0  0  0  0
    4.8755   -1.0534    0.1037 C   0  0  0  0  0  0  0  0  0  0  0  0
    6.2469   -1.0998   -0.0841 O   0  0  0  0  0  0  0  0  0  0  0  0
    7.1860   -1.4315    0.8954 C   0  0  0  0  0  0  0  0  0  0  0  0
    8.5618   -1.3523    0.2422 C   0  0  0  0  0  0  0  0  0  0  0  0
    8.8377    0.0237   -0.2786 C   0  0  0  0  0  0  0  0  0  0  0  0
   10.1205    0.1556   -0.9217 N   0  0  0  0  0  0  0  0  0  0  0  0
   10.2436    1.5262   -1.4031 C   0  0  0  0  0  0  0  0  0  0  0  0
   11.0322    2.2660   -0.3700 C   0  0  0  0  0  0  0  0  0  0  0  0
   11.5546    1.2606    0.6014 C   0  0  0  0  0  0  0  0  0  0  0  0
   11.2376   -0.0641   -0.0616 C   0  0  0  0  0  0  0  0  0  0  0  0
    3.3765    0.9286   -3.1970 H   0  0  0  0  0  0  0  0  0  0  0  0
    4.4163   -0.0517   -4.2499 H   0  0  0  0  0  0  0  0  0  0  0  0
    3.0058   -0.8063   -3.4597 H   0  0  0  0  0  0  0  0  0  0  0  0
    2.0351   -0.4042   -1.5819 H   0  0  0  0  0  0  0  0  0  0  0  0
   -1.6280   -2.0600   -1.7140 H   0  0  0  0  0  0  0  0  0  0  0  0
   -4.0345   -1.8999   -1.7520 H   0  0  0  0  0  0  0  0  0  0  0  0
   -5.8979    0.9020   -0.1436 H   0  0  0  0  0  0  0  0  0  0  0  0
   -9.4104   -1.5492   -2.0945 H   0  0  0  0  0  0  0  0  0  0  0  0
   -7.8369   -2.4982   -2.2408 H   0  0  0  0  0  0  0  0  0  0  0  0
   -9.7256   -2.3351    0.2515 H   0  0  0  0  0  0  0  0  0  0  0  0
   -8.2063   -3.3359    0.0651 H   0  0  0  0  0  0  0  0  0  0  0  0
  -10.1051   -0.5933    0.9972 H   0  0  0  0  0  0  0  0  0  0  0  0
   -9.6143    2.8165   -0.6168 H   0  0  0  0  0  0  0  0  0  0  0  0
  -10.9844    4.7155   -0.1228 H   0  0  0  0  0  0  0  0  0  0  0  0
  -13.1976    2.4655    2.7080 H   0  0  0  0  0  0  0  0  0  0  0  0
  -11.7615    0.4726    2.2022 H   0  0  0  0  0  0  0  0  0  0  0  0
   -3.8884    1.3915    0.9384 H   0  0  0  0  0  0  0  0  0  0  0  0
   -0.8110   -1.1887    2.0237 H   0  0  0  0  0  0  0  0  0  0  0  0
    0.6248   -1.7679    3.8853 H   0  0  0  0  0  0  0  0  0  0  0  0
    4.9378   -1.6182    2.2038 H   0  0  0  0  0  0  0  0  0  0  0  0
    7.0153   -2.4584    1.2939 H   0  0  0  0  0  0  0  0  0  0  0  0
    7.0829   -0.7295    1.7455 H   0  0  0  0  0  0  0  0  0  0  0  0
    9.2768   -1.5920    1.0523 H   0  0  0  0  0  0  0  0  0  0  0  0
    8.5627   -2.1087   -0.5653 H   0  0  0  0  0  0  0  0  0  0  0  0
    8.0505    0.3787   -0.9835 H   0  0  0  0  0  0  0  0  0  0  0  0
    8.8188    0.7816    0.5583 H   0  0  0  0  0  0  0  0  0  0  0  0
   10.7510    1.5557   -2.3913 H   0  0  0  0  0  0  0  0  0  0  0  0
    9.2554    2.0054   -1.5336 H   0  0  0  0  0  0  0  0  0  0  0  0
   11.8781    2.8410   -0.8425 H   0  0  0  0  0  0  0  0  0  0  0  0
   10.4182    3.0320    0.1776 H   0  0  0  0  0  0  0  0  0  0  0  0
   12.6504    1.3755    0.7793 H   0  0  0  0  0  0  0  0  0  0  0  0
   11.0431    1.2979    1.5947 H   0  0  0  0  0  0  0  0  0  0  0  0
   12.1173   -0.4278   -0.6539 H   0  0  0  0  0  0  0  0  0  0  0  0
   11.0857   -0.7881    0.7446 H   0  0  0  0  0  0  0  0  0  0  0  0
  1  2  1  0
  2  3  1  0
  3  4  2  0
  4  5  1  0
  5  6  2  0
  6  7  1  0
  7  8  1  0
  8  9  2  0
  9 10  1  0
 10 11  2  0
 11 12  1  0
 12 13  1  0
 13 14  2  0
 13 15  1  0
 15 16  1  0
 16 17  1  0
 15 18  1  0
 18 19  2  0
 18 20  1  0
 20 21  1  0
 21 22  2  0
 22 23  1  0
 23 24  2  0
 24 25  1  0
 24 26  1  0
 26 27  2  0
 11 28  1  0
 28 29  2  0
 29 30  1  0
  6 31  1  0
 31 32  2  0
 32 33  1  0
 33 34  2  0
 34 35  1  0
 35 36  2  0
 36 37  1  0
 37 38  1  0
 38 39  1  0
 39 40  1  0
 40 41  1  0
 41 42  1  0
 42 43  1  0
 43 44  1  0
 44 45  1  0
 36  3  1  0
 45 41  1  0
 34  5  1  0
 29  8  1  0
 17 15  1  0
 27 21  1  0
  1 46  1  0
  1 47  1  0
  1 48  1  0
  4 49  1  0
  9 50  1  0
 10 51  1  0
 12 52  1  0
 16 53  1  0
 16 54  1  0
 17 55  1  0
 17 56  1  0
 20 57  1  0
 22 58  1  0
 23 59  1  0
 26 60  1  0
 27 61  1  0
 28 62  1  0
 31 63  1  0
 32 64  1  0
 35 65  1  0
 38 66  1  0
 38 67  1  0
 39 68  1  0
 39 69  1  0
 40 70  1  0
 40 71  1  0
 42 72  1  0
 42 73  1  0
 43 74  1  0
 43 75  1  0
 44 76  1  0
 44 77  1  0
 45 78  1  0
 45 79  1  0
M  END
$$$$
[H]c1nc2c(C([H])([H])[H])c([H])c(-c3c(C([H])(C([H])([H])[H])C([H])([H])[H])c4c([H])c(C5([H])C([H])([H])C([H])([H])N(C6([H])C([H])([H])OC6([H])[H])C([H])([H])C5([H])[H])c([H])c([H])c4n3[H])c([H])n2n1
     RDKit          3D

 63 68  0  0  0  0  0  0  0  0999 V2000
   -1.5579    2.8064   -0.6545 C   0  0  0  0  0  0  0  0  0  0  0  0
   -2.2132    1.6947    0.1470 C   0  0  0  0  0  0  0  0  0  0  0  0
   -1.5224    1.6942    1.5372 C   0  0  0  0  0  0  0  0  0  0  0  0
   -1.9568    0.3755   -0.4815 C   0  0  0  0  0  0  0  0  0  0  0  0
   -2.9658   -0.5726   -0.6979 C   0  0  0  0  0  0  0  0  0  0  0  0
   -2.3963   -1.6912   -1.1564 N   0  0  0  0  0  0  0  0  0  0  0  0
   -1.0507   -1.5280   -1.2546 C   0  0  0  0  0  0  0  0  0  0  0  0
   -0.0786   -2.4252   -1.5899 C   0  0  0  0  0  0  0  0  0  0  0  0
    1.2198   -2.0055   -1.4754 C   0  0  0  0  0  0  0  0  0  0  0  0
    1.5455   -0.7304   -1.0374 C   0  0  0  0  0  0  0  0  0  0  0  0
    0.5377    0.1505   -0.7205 C   0  0  0  0  0  0  0  0  0  0  0  0
   -0.7899   -0.2369   -0.8279 C   0  0  0  0  0  0  0  0  0  0  0  0
    2.9907   -0.4616   -0.7844 C   0  0  0  0  0  0  0  0  0  0  0  0
    3.2694    0.8203   -0.0915 C   0  0  0  0  0  0  0  0  0  0  0  0
    4.7355    0.8597    0.3517 C   0  0  0  0  0  0  0  0  0  0  0  0
    5.4089   -0.2851   -0.2286 N   0  0  0  0  0  0  0  0  0  0  0  0
    4.8600   -1.5094    0.3984 C   0  0  0  0  0  0  0  0  0  0  0  0
    3.4037   -1.5536    0.2798 C   0  0  0  0  0  0  0  0  0  0  0  0
    6.8237   -0.3252   -0.0221 C   0  0  0  0  0  0  0  0  0  0  0  0
    7.6714    0.7832   -0.5067 C   0  0  0  0  0  0  0  0  0  0  0  0
    8.5781    0.4443    0.5315 O   0  0  0  0  0  0  0  0  0  0  0  0
    7.4432    0.0161    1.2659 C   0  0  0  0  0  0  0  0  0  0  0  0
   -4.3483   -0.3288   -0.3178 C   0  0  0  0  0  0  0  0  0  0  0  0
   -4.9426   -1.0825    0.6656 C   0  0  0  0  0  0  0  0  0  0  0  0
   -6.2555   -0.8940    0.9651 C   0  0  0  0  0  0  0  0  0  0  0  0
   -6.9308   -1.6439    2.0609 C   0  0  0  0  0  0  0  0  0  0  0  0
   -6.9876    0.0619    0.2680 C   0  0  0  0  0  0  0  0  0  0  0  0
   -8.2808    0.4428    0.3340 N   0  0  0  0  0  0  0  0  0  0  0  0
   -8.4944    1.3946   -0.5791 C   0  0  0  0  0  0  0  0  0  0  0  0
   -7.3087    1.6227   -1.2302 N   0  0  0  0  0  0  0  0  0  0  0  0
   -6.4217    0.7908   -0.6856 N   0  0  0  0  0  0  0  0  0  0  0  0
   -5.1318    0.6083   -0.9790 C   0  0  0  0  0  0  0  0  0  0  0  0
   -2.0067    3.8083   -0.3542 H   0  0  0  0  0  0  0  0  0  0  0  0
   -1.9878    2.6551   -1.7003 H   0  0  0  0  0  0  0  0  0  0  0  0
   -0.5092    2.8224   -0.6953 H   0  0  0  0  0  0  0  0  0  0  0  0
   -3.2447    1.8993    0.2927 H   0  0  0  0  0  0  0  0  0  0  0  0
   -0.5920    2.3356    1.4489 H   0  0  0  0  0  0  0  0  0  0  0  0
   -1.3065    0.6663    1.7842 H   0  0  0  0  0  0  0  0  0  0  0  0
   -2.1430    2.1677    2.2812 H   0  0  0  0  0  0  0  0  0  0  0  0
   -2.9128   -2.5713   -1.4224 H   0  0  0  0  0  0  0  0  0  0  0  0
   -0.2566   -3.4422   -1.9363 H   0  0  0  0  0  0  0  0  0  0  0  0
    2.0207   -2.7179   -1.7508 H   0  0  0  0  0  0  0  0  0  0  0  0
    0.8035    1.1128   -0.3732 H   0  0  0  0  0  0  0  0  0  0  0  0
    3.5834   -0.6856   -1.6700 H   0  0  0  0  0  0  0  0  0  0  0  0
    2.6847    0.7798    0.8800 H   0  0  0  0  0  0  0  0  0  0  0  0
    2.9716    1.7273   -0.6489 H   0  0  0  0  0  0  0  0  0  0  0  0
    5.1647    1.7541   -0.1777 H   0  0  0  0  0  0  0  0  0  0  0  0
    4.8306    0.9410    1.4364 H   0  0  0  0  0  0  0  0  0  0  0  0
    5.3317   -2.3547   -0.1253 H   0  0  0  0  0  0  0  0  0  0  0  0
    5.1838   -1.5355    1.4738 H   0  0  0  0  0  0  0  0  0  0  0  0
    2.9434   -2.4920   -0.0052 H   0  0  0  0  0  0  0  0  0  0  0  0
    2.8671   -1.1754    1.1956 H   0  0  0  0  0  0  0  0  0  0  0  0
    7.2254   -1.3041   -0.4158 H   0  0  0  0  0  0  0  0  0  0  0  0
    8.0199    0.6223   -1.5208 H   0  0  0  0  0  0  0  0  0  0  0  0
    7.3267    1.8181   -0.2761 H   0  0  0  0  0  0  0  0  0  0  0  0
    7.7892   -0.8403    1.8967 H   0  0  0  0  0  0  0  0  0  0  0  0
    7.0431    0.8546    1.8412 H   0  0  0  0  0  0  0  0  0  0  0  0
   -4.3667   -1.8186    1.2008 H   0  0  0  0  0  0  0  0  0  0  0  0
   -7.5989   -0.9323    2.6054 H   0  0  0  0  0  0  0  0  0  0  0  0
   -6.1334   -2.0361    2.7498 H   0  0  0  0  0  0  0  0  0  0  0  0
   -7.5048   -2.4858    1.6766 H   0  0  0  0  0  0  0  0  0  0  0  0
   -9.4002    1.9282   -0.8254 H   0  0  0  0  0  0  0  0  0  0  0  0
   -4.6799    1.2071   -1.7459 H   0  0  0  0  0  0  0  0  0  0  0  0
  1  2  1  0
  2  3  1  0
  2  4  1  0
  4  5  2  0
  5  6  1  0
  6  7  1  0
  7  8  2  0
  8  9  1  0
  9 10  2  0
 10 11  1  0
 11 12  2  0
 10 13  1  0
 13 14  1  0
 14 15  1  0
 15 16  1  0
 16 17  1  0
 17 18  1  0
 16 19  1  0
 19 20  1  0
 20 21  1  0
 21 22  1  0
  5 23  1  0
 23 24  1  0
 24 25  2  0
 25 26  1  0
 25 27  1  0
 27 28  2  0
 28 29  1  0
 29 30  2  0
 30 31  1  0
 31 32  1  0
 12  4  1  0
 18 13  1  0
 22 19  1  0
 32 23  2  0
 12  7  1  0
 31 27  1  0
  1 33  1  0
  1 34  1  0
  1 35  1  0
  2 36  1  0
  3 37  1  0
  3 38  1  0
  3 39  1  0
  6 40  1  0
  8 41  1  0
  9 42  1  0
 11 43  1  0
 13 44  1  0
 14 45  1  0
 14 46  1  0
 15 47  1  0
 15 48  1  0
 17 49  1  0
 17 50  1  0
 18 51  1  0
 18 52  1  0
 19 53  1  0
 20 54  1  0
 20 55  1  0
 22 56  1  0
 22 57  1  0
 24 58  1  0
 26 59  1  0
 26 60  1  0
 26 61  1  0
 29 62  1  0
 32 63  1  0
M  END
$$$$
[H]c1nc(N([H])c2c([H])c([H])c([H])c([H])c2[H])nc(Oc2c([H])c([H])c(N([H])C(=O)N([H])c3c([H])c(C(C([H])([H])[H])(C([H])([H])[H])C([H])([H])[H])nn3-c3c([H])c([H])c(OC([H])([H])[H])c([H])c3[H])c3c([H])c([H])c([H])c([H])c23)c1[H]
     RDKit          3D

 78 83  0  0  0  0  0  0  0  0999 V2000
  -10.0355   -3.2541    3.6350 C   0  0  0  0  0  0  0  0  0  0  0  0
   -8.6501   -3.5329    3.5459 O   0  0  0  0  0  0  0  0  0  0  0  0
   -7.8211   -2.7791    2.7046 C   0  0  0  0  0  0  0  0  0  0  0  0
   -8.3221   -1.7646    1.9628 C   0  0  0  0  0  0  0  0  0  0  0  0
   -7.4780   -1.0483    1.1471 C   0  0  0  0  0  0  0  0  0  0  0  0
   -6.1127   -1.3553    1.0765 C   0  0  0  0  0  0  0  0  0  0  0  0
   -5.6271   -2.3742    1.8254 C   0  0  0  0  0  0  0  0  0  0  0  0
   -6.4730   -3.1076    2.6568 C   0  0  0  0  0  0  0  0  0  0  0  0
   -5.3634   -0.5436    0.1682 N   0  0  0  0  0  0  0  0  0  0  0  0
   -5.7751   -0.1732   -1.0311 N   0  0  0  0  0  0  0  0  0  0  0  0
   -4.8960    0.5657   -1.6755 C   0  0  0  0  0  0  0  0  0  0  0  0
   -3.8167    0.6711   -0.7861 C   0  0  0  0  0  0  0  0  0  0  0  0
   -4.0966   -0.0174    0.3674 C   0  0  0  0  0  0  0  0  0  0  0  0
   -3.3676   -0.1521    1.5433 N   0  0  0  0  0  0  0  0  0  0  0  0
   -2.0390    0.1197    1.8616 C   0  0  0  0  0  0  0  0  0  0  0  0
   -1.7613   -0.0506    3.1268 O   0  0  0  0  0  0  0  0  0  0  0  0
   -1.0556    0.5258    0.9735 N   0  0  0  0  0  0  0  0  0  0  0  0
    0.3182    0.7918    1.2765 C   0  0  0  0  0  0  0  0  0  0  0  0
    0.9852    0.3112    2.3662 C   0  0  0  0  0  0  0  0  0  0  0  0
    2.3442    0.4980    2.5429 C   0  0  0  0  0  0  0  0  0  0  0  0
    3.1004    1.1975    1.5957 C   0  0  0  0  0  0  0  0  0  0  0  0
    4.4579    1.3537    1.8090 O   0  0  0  0  0  0  0  0  0  0  0  0
    5.3971    0.6703    1.0234 C   0  0  0  0  0  0  0  0  0  0  0  0
    5.0736   -0.2267    0.0346 C   0  0  0  0  0  0  0  0  0  0  0  0
    6.0403   -0.8829   -0.7148 C   0  0  0  0  0  0  0  0  0  0  0  0
    7.3284   -0.6103   -0.4383 N   0  0  0  0  0  0  0  0  0  0  0  0
    7.6821    0.2553    0.5163 C   0  0  0  0  0  0  0  0  0  0  0  0
    9.0479    0.4957    0.7754 N   0  0  0  0  0  0  0  0  0  0  0  0
   10.1636   -0.0486    0.1407 C   0  0  0  0  0  0  0  0  0  0  0  0
   10.1458   -0.4262   -1.1736 C   0  0  0  0  0  0  0  0  0  0  0  0
   11.2646   -1.0104   -1.7885 C   0  0  0  0  0  0  0  0  0  0  0  0
   12.3972   -1.1932   -1.0183 C   0  0  0  0  0  0  0  0  0  0  0  0
   12.4355   -0.8211    0.2990 C   0  0  0  0  0  0  0  0  0  0  0  0
   11.3388   -0.2533    0.8859 C   0  0  0  0  0  0  0  0  0  0  0  0
    6.7163    0.8715    1.2204 N   0  0  0  0  0  0  0  0  0  0  0  0
    2.4433    1.6820    0.5170 C   0  0  0  0  0  0  0  0  0  0  0  0
    3.1134    2.4425   -0.4429 C   0  0  0  0  0  0  0  0  0  0  0  0
    2.5233    3.0059   -1.5394 C   0  0  0  0  0  0  0  0  0  0  0  0
    1.1765    2.8106   -1.7051 C   0  0  0  0  0  0  0  0  0  0  0  0
    0.4645    2.0639   -0.7767 C   0  0  0  0  0  0  0  0  0  0  0  0
    1.0690    1.5023    0.3220 C   0  0  0  0  0  0  0  0  0  0  0  0
   -4.9731    1.1686   -3.0301 C   0  0  0  0  0  0  0  0  0  0  0  0
   -4.2041    0.3362   -4.0175 C   0  0  0  0  0  0  0  0  0  0  0  0
   -4.3850    2.5616   -2.9671 C   0  0  0  0  0  0  0  0  0  0  0  0
   -6.4010    1.2901   -3.4594 C   0  0  0  0  0  0  0  0  0  0  0  0
  -10.4568   -3.7576    4.5285 H   0  0  0  0  0  0  0  0  0  0  0  0
  -10.5712   -3.6043    2.7093 H   0  0  0  0  0  0  0  0  0  0  0  0
  -10.2664   -2.1747    3.7473 H   0  0  0  0  0  0  0  0  0  0  0  0
   -9.3941   -1.5382    2.0281 H   0  0  0  0  0  0  0  0  0  0  0  0
   -7.8933   -0.2459    0.5625 H   0  0  0  0  0  0  0  0  0  0  0  0
   -4.5883   -2.6305    1.7799 H   0  0  0  0  0  0  0  0  0  0  0  0
   -6.1055   -3.9216    3.2637 H   0  0  0  0  0  0  0  0  0  0  0  0
   -2.9435    1.2646   -1.0581 H   0  0  0  0  0  0  0  0  0  0  0  0
   -3.9536   -0.4731    2.4136 H   0  0  0  0  0  0  0  0  0  0  0  0
   -1.3443    0.5884   -0.0464 H   0  0  0  0  0  0  0  0  0  0  0  0
    0.4457   -0.2471    3.1227 H   0  0  0  0  0  0  0  0  0  0  0  0
    2.8638    0.1228    3.3967 H   0  0  0  0  0  0  0  0  0  0  0  0
    4.0133   -0.4295   -0.1463 H   0  0  0  0  0  0  0  0  0  0  0  0
    5.7320   -1.5752   -1.4810 H   0  0  0  0  0  0  0  0  0  0  0  0
    9.2681    1.1900    1.5643 H   0  0  0  0  0  0  0  0  0  0  0  0
    9.3072   -0.3096   -1.8553 H   0  0  0  0  0  0  0  0  0  0  0  0
   11.2753   -1.3117   -2.8101 H   0  0  0  0  0  0  0  0  0  0  0  0
   13.2773   -1.6462   -1.4957 H   0  0  0  0  0  0  0  0  0  0  0  0
   13.3386   -0.9719    0.9069 H   0  0  0  0  0  0  0  0  0  0  0  0
   11.3731    0.0410    1.9465 H   0  0  0  0  0  0  0  0  0  0  0  0
    4.1822    2.6120   -0.2780 H   0  0  0  0  0  0  0  0  0  0  0  0
    3.1283    3.5968   -2.2456 H   0  0  0  0  0  0  0  0  0  0  0  0
    0.7025    3.2494   -2.5692 H   0  0  0  0  0  0  0  0  0  0  0  0
   -0.5844    1.9803   -0.9837 H   0  0  0  0  0  0  0  0  0  0  0  0
   -4.7661   -0.5807   -4.3065 H   0  0  0  0  0  0  0  0  0  0  0  0
   -4.1251    0.9321   -4.9680 H   0  0  0  0  0  0  0  0  0  0  0  0
   -3.1848    0.1253   -3.7074 H   0  0  0  0  0  0  0  0  0  0  0  0
   -4.6634    3.1568   -3.8519 H   0  0  0  0  0  0  0  0  0  0  0  0
   -4.7316    3.0682   -2.0427 H   0  0  0  0  0  0  0  0  0  0  0  0
   -3.2656    2.4559   -2.8474 H   0  0  0  0  0  0  0  0  0  0  0  0
   -7.0027    1.6667   -2.5771 H   0  0  0  0  0  0  0  0  0  0  0  0
   -6.5538    1.9114   -4.3633 H   0  0  0  0  0  0  0  0  0  0  0  0
   -6.8862    0.3071   -3.6918 H   0  0  0  0  0  0  0  0  0  0  0  0
  1  2  1  0
  2  3  1  0
  3  4  2  0
  4  5  1  0
  5  6  2  0
  6  7  1  0
  7  8  2  0
  6  9  1  0
  9 10  1  0
 10 11  2  0
 11 12  1  0
 12 13  2  0
 13 14  1  0
 14 15  1  0
 15 16  2  0
 15 17  1  0
 17 18  1  0
 18 19  2  0
 19 20  1  0
 20 21  2  0
 21 22  1  0
 22 23  1  0
 23 24  2  0
 24 25  1  0
 25 26  2  0
 26 27  1  0
 27 28  1  0
 28 29  1  0
 29 30  2  0
 30 31  1  0
 31 32  2  0
 32 33  1  0
 33 34  2  0
 27 35  2  0
 21 36  1  0
 36 37  2  0
 37 38  1  0
 38 39  2  0
 39 40  1  0
 40 41  2  0
 11 42  1  0
 42 43  1  0
 42 44  1  0
 42 45  1  0
  8  3  1  0
 13  9  1  0
 41 18  1  0
 35 23  1  0
 41 36  1  0
 34 29  1  0
  1 46  1  0
  1 47  1  0
  1 48  1  0
  4 49  1  0
  5 50  1  0
  7 51  1  0
  8 52  1  0
 12 53  1  0
 14 54  1  0
 17 55  1  0
 19 56  1  0
 20 57  1  0
 24 58  1  0
 25 59  1  0
 28 60  1  0
 30 61  1  0
 31 62  1  0
 32 63  1  0
 33 64  1  0
 34 65  1  0
 37 66  1  0
 38 67  1  0
 39 68  1  0
 40 69  1  0
 43 70  1  0
 43 71  1  0
 43 72  1  0
 44 73  1  0
 44 74  1  0
 44 75  1  0
 45 76  1  0
 45 77  1  0
 45 78  1  0
M  END
$$$$
[H]c1nc(N([H])[H])c2c(-c3sc4c(OC([H])([H])[H])c([H])c(C([H])([H])[H])c([H])c4c3[H])c(C([H])([H])N([H])C(=O)C([H])([H])[H])c([H])n2n1
     RDKit          3D

 46 49  0  0  0  0  0  0  0  0999 V2000
   -4.1432   -2.7939    2.2942 C   0  0  0  0  0  0  0  0  0  0  0  0
   -3.0655   -2.0134    1.8358 O   0  0  0  0  0  0  0  0  0  0  0  0
   -3.2535   -1.0752    0.8408 C   0  0  0  0  0  0  0  0  0  0  0  0
   -4.4685   -0.8391    0.2412 C   0  0  0  0  0  0  0  0  0  0  0  0
   -4.5216    0.1245   -0.7387 C   0  0  0  0  0  0  0  0  0  0  0  0
   -5.8296    0.4296   -1.4348 C   0  0  0  0  0  0  0  0  0  0  0  0
   -3.3980    0.8146   -1.0931 C   0  0  0  0  0  0  0  0  0  0  0  0
   -2.1291    0.6053   -0.5042 C   0  0  0  0  0  0  0  0  0  0  0  0
   -0.9400    1.2253   -0.7690 C   0  0  0  0  0  0  0  0  0  0  0  0
    0.1514    0.8483   -0.0613 C   0  0  0  0  0  0  0  0  0  0  0  0
   -0.4795   -0.3650    0.9610 S   0  0  0  0  0  0  0  0  0  0  0  0
   -2.1075   -0.3563    0.4643 C   0  0  0  0  0  0  0  0  0  0  0  0
    1.5729    1.1818   -0.1398 C   0  0  0  0  0  0  0  0  0  0  0  0
    2.5940    0.2042   -0.0540 C   0  0  0  0  0  0  0  0  0  0  0  0
    2.3455   -1.2421    0.0928 C   0  0  0  0  0  0  0  0  0  0  0  0
    3.6225   -1.9726    0.1101 N   0  0  0  0  0  0  0  0  0  0  0  0
    3.6157   -3.3728    0.2441 C   0  0  0  0  0  0  0  0  0  0  0  0
    4.8789   -4.1260    0.2641 C   0  0  0  0  0  0  0  0  0  0  0  0
    2.5338   -3.9761    0.3461 O   0  0  0  0  0  0  0  0  0  0  0  0
    3.7640    0.9017   -0.1256 C   0  0  0  0  0  0  0  0  0  0  0  0
    3.4852    2.2131   -0.2438 N   0  0  0  0  0  0  0  0  0  0  0  0
    4.3254    3.2201   -0.3191 N   0  0  0  0  0  0  0  0  0  0  0  0
    3.8799    4.4910   -0.4043 C   0  0  0  0  0  0  0  0  0  0  0  0
    2.5534    4.7422   -0.4116 N   0  0  0  0  0  0  0  0  0  0  0  0
    1.6624    3.7225   -0.3355 C   0  0  0  0  0  0  0  0  0  0  0  0
    0.2920    4.0116   -0.2680 N   0  0  0  0  0  0  0  0  0  0  0  0
    2.1461    2.4368   -0.2545 C   0  0  0  0  0  0  0  0  0  0  0  0
   -4.6018   -3.3003    1.4093 H   0  0  0  0  0  0  0  0  0  0  0  0
   -3.8319   -3.6014    2.9784 H   0  0  0  0  0  0  0  0  0  0  0  0
   -4.9358   -2.1890    2.7712 H   0  0  0  0  0  0  0  0  0  0  0  0
   -5.3329   -1.3872    0.5310 H   0  0  0  0  0  0  0  0  0  0  0  0
   -6.5613    0.8657   -0.7592 H   0  0  0  0  0  0  0  0  0  0  0  0
   -5.6583    1.0779   -2.3098 H   0  0  0  0  0  0  0  0  0  0  0  0
   -6.2409   -0.5262   -1.8341 H   0  0  0  0  0  0  0  0  0  0  0  0
   -3.5247    1.5691   -1.8850 H   0  0  0  0  0  0  0  0  0  0  0  0
   -0.9051    1.9881   -1.6046 H   0  0  0  0  0  0  0  0  0  0  0  0
    1.6834   -1.6257   -0.7073 H   0  0  0  0  0  0  0  0  0  0  0  0
    1.8381   -1.4932    1.0553 H   0  0  0  0  0  0  0  0  0  0  0  0
    4.5248   -1.4832    0.0260 H   0  0  0  0  0  0  0  0  0  0  0  0
    5.7498   -3.4404    0.0884 H   0  0  0  0  0  0  0  0  0  0  0  0
    4.9832   -4.5999    1.2597 H   0  0  0  0  0  0  0  0  0  0  0  0
    4.8195   -4.8919   -0.5525 H   0  0  0  0  0  0  0  0  0  0  0  0
    4.7808    0.4690   -0.0925 H   0  0  0  0  0  0  0  0  0  0  0  0
    4.6168    5.2859   -0.4654 H   0  0  0  0  0  0  0  0  0  0  0  0
   -0.2039    3.9416    0.6484 H   0  0  0  0  0  0  0  0  0  0  0  0
   -0.2868    4.3010   -1.0944 H   0  0  0  0  0  0  0  0  0  0  0  0
  1  2  1  0
  2  3  1  0
  3  4  2  0
  4  5  1  0
  5  6  1  0
  5  7  2  0
  7  8  1  0
  8  9  1  0
  9 10  2  0
 10 11  1  0
 11 12  1  0
 10 13  1  0
 13 14  1  0
 14 15  1  0
 15 16  1  0
 16 17  1  0
 17 18  1  0
 17 19  2  0
 14 20  2  0
 20 21  1  0
 21 22  1  0
 22 23  2  0
 23 24  1  0
 24 25  2  0
 25 26  1  0
 25 27  1  0
 12  3  1  0
 27 13  2  0
 12  8  2  0
 27 21  1  0
  1 28  1  0
  1 29  1  0
  1 30  1  0
  4 31  1  0
  6 32  1  0
  6 33  1  0
  6 34  1  0
  7 35  1  0
  9 36  1  0
 15 37  1  0
 15 38  1  0
 16 39  1  0
 18 40  1  0
 18 41  1  0
 18 42  1  0
 20 43  1  0
 23 44  1  0
 26 45  1  0
 26 46  1  0
M  END
$$$$
[H]O[C@@]1([H])C([H])([H])C([H])([H])[C@]2([H])[C@]1(C([H])([H])[H])C([H])([H])C([H])([H])[C@]1([H])[C@]3(C([H])([H])[H])C(=C([H])C(=O)C([H])([H])C3([H])[H])C([H])([H])C([H])([H])[C@@]21[H]
     RDKit          3D

 49 52  0  0  0  0  0  0  0  0999 V2000
    2.6003    1.3949    0.7370 C   0  0  0  0  0  0  0  0  0  0  0  0
    2.3315    0.4990   -0.4424 C   0  0  2  0  0  0  0  0  0  0  0  0
    1.5103    1.1614   -1.4949 C   0  0  0  0  0  0  0  0  0  0  0  0
    0.1483    1.4556   -0.9170 C   0  0  0  0  0  0  0  0  0  0  0  0
   -0.5369    0.1560   -0.5507 C   0  0  1  0  0  0  0  0  0  0  0  0
    0.2754   -0.6369    0.4710 C   0  0  1  0  0  0  0  0  0  0  0  0
   -0.3169   -2.0384    0.5263 C   0  0  0  0  0  0  0  0  0  0  0  0
   -1.7749   -2.0482    0.8169 C   0  0  0  0  0  0  0  0  0  0  0  0
   -2.5405   -0.9871    0.1457 C   0  0  0  0  0  0  0  0  0  0  0  0
   -3.7658   -1.2727   -0.2625 C   0  0  0  0  0  0  0  0  0  0  0  0
   -4.6079   -0.3042   -0.9341 C   0  0  0  0  0  0  0  0  0  0  0  0
   -5.6066   -0.6232   -1.6118 O   0  0  0  0  0  0  0  0  0  0  0  0
   -4.2087    1.1393   -0.7699 C   0  0  0  0  0  0  0  0  0  0  0  0
   -2.7163    1.1869   -1.0278 C   0  0  0  0  0  0  0  0  0  0  0  0
   -1.9296    0.3620   -0.0560 C   0  0  2  0  0  0  0  0  0  0  0  0
   -1.9459    1.0713    1.2829 C   0  0  0  0  0  0  0  0  0  0  0  0
    1.6457   -0.7900   -0.0472 C   0  0  2  0  0  0  0  0  0  0  0  0
    2.6444   -1.3862    0.8737 C   0  0  0  0  0  0  0  0  0  0  0  0
    3.9631   -1.0731    0.1623 C   0  0  0  0  0  0  0  0  0  0  0  0
    3.6050   -0.1289   -0.9688 C   0  0  2  0  0  0  0  0  0  0  0  0
    4.5812    0.7519   -1.2889 O   0  0  0  0  0  0  0  0  0  0  0  0
    3.6756    1.2716    1.0471 H   0  0  0  0  0  0  0  0  0  0  0  0
    1.9625    1.2047    1.6015 H   0  0  0  0  0  0  0  0  0  0  0  0
    2.4819    2.4492    0.4115 H   0  0  0  0  0  0  0  0  0  0  0  0
    1.9872    2.1545   -1.7263 H   0  0  0  0  0  0  0  0  0  0  0  0
    1.4562    0.5158   -2.3781 H   0  0  0  0  0  0  0  0  0  0  0  0
   -0.4734    1.9510   -1.6671 H   0  0  0  0  0  0  0  0  0  0  0  0
    0.2714    2.1214   -0.0498 H   0  0  0  0  0  0  0  0  0  0  0  0
   -0.5888   -0.4547   -1.4753 H   0  0  0  0  0  0  0  0  0  0  0  0
    0.1940   -0.1895    1.4684 H   0  0  0  0  0  0  0  0  0  0  0  0
   -0.0876   -2.5040   -0.4691 H   0  0  0  0  0  0  0  0  0  0  0  0
    0.2474   -2.5825    1.3004 H   0  0  0  0  0  0  0  0  0  0  0  0
   -2.1698   -3.0559    0.5263 H   0  0  0  0  0  0  0  0  0  0  0  0
   -1.9002   -2.0016    1.9294 H   0  0  0  0  0  0  0  0  0  0  0  0
   -4.1853   -2.2671   -0.1012 H   0  0  0  0  0  0  0  0  0  0  0  0
   -4.4637    1.4087    0.2637 H   0  0  0  0  0  0  0  0  0  0  0  0
   -4.7180    1.7173   -1.5432 H   0  0  0  0  0  0  0  0  0  0  0  0
   -2.5697    0.8169   -2.0700 H   0  0  0  0  0  0  0  0  0  0  0  0
   -2.4147    2.2480   -0.9356 H   0  0  0  0  0  0  0  0  0  0  0  0
   -2.6695    1.9362    1.2729 H   0  0  0  0  0  0  0  0  0  0  0  0
   -2.2828    0.4031    2.1004 H   0  0  0  0  0  0  0  0  0  0  0  0
   -0.9566    1.5164    1.5155 H   0  0  0  0  0  0  0  0  0  0  0  0
    1.6091   -1.4204   -0.9702 H   0  0  0  0  0  0  0  0  0  0  0  0
    2.6340   -0.7940    1.8359 H   0  0  0  0  0  0  0  0  0  0  0  0
    2.5188   -2.4554    1.0564 H   0  0  0  0  0  0  0  0  0  0  0  0
    4.3735   -2.0337   -0.2265 H   0  0  0  0  0  0  0  0  0  0  0  0
    4.6899   -0.6220    0.8558 H   0  0  0  0  0  0  0  0  0  0  0  0
    3.3380   -0.7531   -1.8418 H   0  0  0  0  0  0  0  0  0  0  0  0
    4.6855    1.5297   -0.7163 H   0  0  0  0  0  0  0  0  0  0  0  0
  2  1  1  1
  2  3  1  0
  3  4  1  0
  4  5  1  0
  5  6  1  0
  6  7  1  0
  7  8  1  0
  8  9  1  0
  9 10  2  0
 10 11  1  0
 11 12  2  0
 11 13  1  0
 13 14  1  0
 14 15  1  0
 15 16  1  1
  6 17  1  0
 17 18  1  0
 18 19  1  0
 19 20  1  0
 20 21  1  0
 17  2  1  0
 20  2  1  0
 15  5  1  0
 15  9  1  0
  1 22  1  0
  1 23  1  0
  1 24  1  0
  3 25  1  0
  3 26  1  0
  4 27  1  0
  4 28  1  0
  5 29  1  6
  6 30  1  1
  7 31  1  0
  7 32  1  0
  8 33  1  0
  8 34  1  0
 10 35  1  0
 13 36  1  0
 13 37  1  0
 14 38  1  0
 14 39  1  0
 16 40  1  0
 16 41  1  0
 16 42  1  0
 17 43  1  6
 18 44  1  0
 18 45  1  0
 19 46  1  0
 19 47  1  0
 20 48  1  6
 21 49  1  0
M  END
$$$$
[H]OC([H])([H])C([H])([H])N([H])C(=O)c1c([H])c(OC([H])([H])[H])c([H])c(N([H])c2nc([H])c([H])c(Oc3c([H])c([H])c(N([H])C(=O)N([H])c4c([H])c(C(C([H])([H])[H])(C([H])([H])[H])C([H])([H])[H])nn4-c4c([H])c([H])c(C([H])([H])[H])c([H])c4[H])c4c([H])c([H])c([H])c([H])c34)n2)c1[H]
     RDKit          3D

 92 97  0  0  0  0  0  0  0  0999 V2000
    9.9275    0.0797    4.2264 C   0  0  0  0  0  0  0  0  0  0  0  0
   10.6074   -0.0748    2.9764 O   0  0  0  0  0  0  0  0  0  0  0  0
    9.9371    0.1979    1.8005 C   0  0  0  0  0  0  0  0  0  0  0  0
    8.6406    0.6140    1.8427 C   0  0  0  0  0  0  0  0  0  0  0  0
    7.8931    0.9159    0.6801 C   0  0  0  0  0  0  0  0  0  0  0  0
    6.5642    1.3629    0.9017 N   0  0  0  0  0  0  0  0  0  0  0  0
    5.4967    0.4684    1.1848 C   0  0  0  0  0  0  0  0  0  0  0  0
    5.7740   -0.8611    1.1524 N   0  0  0  0  0  0  0  0  0  0  0  0
    4.7835   -1.7043    1.4828 C   0  0  0  0  0  0  0  0  0  0  0  0
    3.5540   -1.2683    1.8354 C   0  0  0  0  0  0  0  0  0  0  0  0
    3.2337    0.1248    1.8804 C   0  0  0  0  0  0  0  0  0  0  0  0
    1.9993    0.4453    2.2582 O   0  0  0  0  0  0  0  0  0  0  0  0
    0.7652    0.6406    1.7187 C   0  0  0  0  0  0  0  0  0  0  0  0
   -0.1923   -0.3900    1.9350 C   0  0  0  0  0  0  0  0  0  0  0  0
   -1.4555   -0.2874    1.4411 C   0  0  0  0  0  0  0  0  0  0  0  0
   -1.9283    0.7735    0.7121 C   0  0  0  0  0  0  0  0  0  0  0  0
   -3.2314    0.8588    0.2442 N   0  0  0  0  0  0  0  0  0  0  0  0
   -4.2551   -0.1088    0.3416 C   0  0  0  0  0  0  0  0  0  0  0  0
   -4.0931   -1.2000    0.8673 O   0  0  0  0  0  0  0  0  0  0  0  0
   -5.5660    0.1686   -0.1848 N   0  0  0  0  0  0  0  0  0  0  0  0
   -6.6274   -0.7606   -0.1317 C   0  0  0  0  0  0  0  0  0  0  0  0
   -6.6054   -2.0672    0.2792 C   0  0  0  0  0  0  0  0  0  0  0  0
   -7.9282   -2.5284    0.1975 C   0  0  0  0  0  0  0  0  0  0  0  0
   -8.6370   -1.4996   -0.2451 N   0  0  0  0  0  0  0  0  0  0  0  0
   -7.9190   -0.4163   -0.4604 N   0  0  0  0  0  0  0  0  0  0  0  0
   -8.3525    0.8638   -0.9081 C   0  0  0  0  0  0  0  0  0  0  0  0
   -8.0760    2.0217   -0.1956 C   0  0  0  0  0  0  0  0  0  0  0  0
   -8.4970    3.2734   -0.6061 C   0  0  0  0  0  0  0  0  0  0  0  0
   -9.2290    3.4189   -1.7701 C   0  0  0  0  0  0  0  0  0  0  0  0
   -9.6731    4.7915   -2.1745 C   0  0  0  0  0  0  0  0  0  0  0  0
   -9.5080    2.2819   -2.4825 C   0  0  0  0  0  0  0  0  0  0  0  0
   -9.0783    1.0254   -2.0603 C   0  0  0  0  0  0  0  0  0  0  0  0
   -8.3726   -3.9246    0.5670 C   0  0  0  0  0  0  0  0  0  0  0  0
   -9.2499   -3.7231    1.8001 C   0  0  0  0  0  0  0  0  0  0  0  0
   -9.2201   -4.4926   -0.5131 C   0  0  0  0  0  0  0  0  0  0  0  0
   -7.1696   -4.7514    0.9182 C   0  0  0  0  0  0  0  0  0  0  0  0
   -0.9757    1.7927    0.5038 C   0  0  0  0  0  0  0  0  0  0  0  0
   -1.3987    2.9099   -0.1805 C   0  0  0  0  0  0  0  0  0  0  0  0
   -0.4847    3.9734   -0.3653 C   0  0  0  0  0  0  0  0  0  0  0  0
    0.7904    3.9176    0.1121 C   0  0  0  0  0  0  0  0  0  0  0  0
    1.1621    2.7643    0.7931 C   0  0  0  0  0  0  0  0  0  0  0  0
    0.3111    1.7069    0.9961 C   0  0  0  0  0  0  0  0  0  0  0  0
    4.2848    0.8972    1.5321 N   0  0  0  0  0  0  0  0  0  0  0  0
    8.5285    0.7714   -0.5122 C   0  0  0  0  0  0  0  0  0  0  0  0
    9.8597    0.3432   -0.5753 C   0  0  0  0  0  0  0  0  0  0  0  0
   10.5542    0.0599    0.6042 C   0  0  0  0  0  0  0  0  0  0  0  0
   10.5678    0.1542   -1.8132 C   0  0  0  0  0  0  0  0  0  0  0  0
   11.8176    0.3889   -1.8071 O   0  0  0  0  0  0  0  0  0  0  0  0
    9.9090   -0.2771   -2.9847 N   0  0  0  0  0  0  0  0  0  0  0  0
   10.6334   -0.4687   -4.2193 C   0  0  0  0  0  0  0  0  0  0  0  0
   11.7136   -1.4959   -4.1012 C   0  0  0  0  0  0  0  0  0  0  0  0
   11.1744   -2.7202   -3.7359 O   0  0  0  0  0  0  0  0  0  0  0  0
    9.0486   -0.5930    4.3059 H   0  0  0  0  0  0  0  0  0  0  0  0
   10.5819   -0.1134    5.0829 H   0  0  0  0  0  0  0  0  0  0  0  0
    9.5156    1.1178    4.2223 H   0  0  0  0  0  0  0  0  0  0  0  0
    8.1274    0.7286    2.7952 H   0  0  0  0  0  0  0  0  0  0  0  0
    6.3553    2.3916    0.8538 H   0  0  0  0  0  0  0  0  0  0  0  0
    5.0414   -2.7736    1.4529 H   0  0  0  0  0  0  0  0  0  0  0  0
    2.7795   -1.9553    2.0964 H   0  0  0  0  0  0  0  0  0  0  0  0
    0.1576   -1.2353    2.5025 H   0  0  0  0  0  0  0  0  0  0  0  0
   -2.0958   -1.1434    1.6741 H   0  0  0  0  0  0  0  0  0  0  0  0
   -3.5511    1.7538   -0.2598 H   0  0  0  0  0  0  0  0  0  0  0  0
   -5.7063    1.1235   -0.6438 H   0  0  0  0  0  0  0  0  0  0  0  0
   -5.7936   -2.6885    0.6054 H   0  0  0  0  0  0  0  0  0  0  0  0
   -7.4885    1.9230    0.7343 H   0  0  0  0  0  0  0  0  0  0  0  0
   -8.2637    4.1734   -0.0297 H   0  0  0  0  0  0  0  0  0  0  0  0
  -10.6431    4.9971   -1.6405 H   0  0  0  0  0  0  0  0  0  0  0  0
   -9.7717    4.8848   -3.2548 H   0  0  0  0  0  0  0  0  0  0  0  0
   -8.9464    5.5223   -1.7274 H   0  0  0  0  0  0  0  0  0  0  0  0
  -10.0805    2.4074   -3.3892 H   0  0  0  0  0  0  0  0  0  0  0  0
   -9.3140    0.1304   -2.6441 H   0  0  0  0  0  0  0  0  0  0  0  0
   -8.6226   -3.5459    2.6878 H   0  0  0  0  0  0  0  0  0  0  0  0
   -9.8764   -2.8073    1.6199 H   0  0  0  0  0  0  0  0  0  0  0  0
   -9.9662   -4.5372    1.9296 H   0  0  0  0  0  0  0  0  0  0  0  0
   -9.8163   -3.6773   -0.9628 H   0  0  0  0  0  0  0  0  0  0  0  0
   -9.9435   -5.2073   -0.1006 H   0  0  0  0  0  0  0  0  0  0  0  0
   -8.6327   -4.9268   -1.3619 H   0  0  0  0  0  0  0  0  0  0  0  0
   -7.5316   -5.6814    1.4190 H   0  0  0  0  0  0  0  0  0  0  0  0
   -6.5718   -4.9273    0.0270 H   0  0  0  0  0  0  0  0  0  0  0  0
   -6.6155   -4.1876    1.7131 H   0  0  0  0  0  0  0  0  0  0  0  0
   -2.3792    3.0549   -0.5975 H   0  0  0  0  0  0  0  0  0  0  0  0
   -0.8305    4.8367   -0.8983 H   0  0  0  0  0  0  0  0  0  0  0  0
    1.4649    4.7366   -0.0383 H   0  0  0  0  0  0  0  0  0  0  0  0
    2.1528    2.7129    1.1905 H   0  0  0  0  0  0  0  0  0  0  0  0
    7.9826    0.9939   -1.4256 H   0  0  0  0  0  0  0  0  0  0  0  0
   11.6014   -0.2705    0.5106 H   0  0  0  0  0  0  0  0  0  0  0  0
    8.8664   -0.4500   -2.9236 H   0  0  0  0  0  0  0  0  0  0  0  0
   11.0386    0.5342   -4.5029 H   0  0  0  0  0  0  0  0  0  0  0  0
    9.8944   -0.8051   -4.9876 H   0  0  0  0  0  0  0  0  0  0  0  0
   12.5620   -1.2191   -3.4752 H   0  0  0  0  0  0  0  0  0  0  0  0
   12.1360   -1.6711   -5.1363 H   0  0  0  0  0  0  0  0  0  0  0  0
   10.3758   -2.5928   -3.1812 H   0  0  0  0  0  0  0  0  0  0  0  0
  1  2  1  0
  2  3  1  0
  3  4  2  0
  4  5  1  0
  5  6  1  0
  6  7  1  0
  7  8  2  0
  8  9  1  0
  9 10  2  0
 10 11  1  0
 11 12  1  0
 12 13  1  0
 13 14  2  0
 14 15  1  0
 15 16  2  0
 16 17  1  0
 17 18  1  0
 18 19  2  0
 18 20  1  0
 20 21  1  0
 21 22  2  0
 22 23  1  0
 23 24  2  0
 24 25  1  0
 25 26  1  0
 26 27  2  0
 27 28  1  0
 28 29  2  0
 29 30  1  0
 29 31  1  0
 31 32  2  0
 23 33  1  0
 33 34  1  0
 33 35  1  0
 33 36  1  0
 16 37  1  0
 37 38  2  0
 38 39  1  0
 39 40  2  0
 40 41  1  0
 41 42  2  0
 11 43  2  0
  5 44  2  0
 44 45  1  0
 45 46  2  0
 45 47  1  0
 47 48  2  0
 47 49  1  0
 49 50  1  0
 50 51  1  0
 51 52  1  0
 46  3  1  0
 43  7  1  0
 42 13  1  0
 25 21  1  0
 32 26  1  0
 42 37  1  0
  1 53  1  0
  1 54  1  0
  1 55  1  0
  4 56  1  0
  6 57  1  0
  9 58  1  0
 10 59  1  0
 14 60  1  0
 15 61  1  0
 17 62  1  0
 20 63  1  0
 22 64  1  0
 27 65  1  0
 28 66  1  0
 30 67  1  0
 30 68  1  0
 30 69  1  0
 31 70  1  0
 32 71  1  0
 34 72  1  0
 34 73  1  0
 34 74  1  0
 35 75  1  0
 35 76  1  0
 35 77  1  0
 36 78  1  0
 36 79  1  0
 36 80  1  0
 38 81  1  0
 39 82  1  0
 40 83  1  0
 41 84  1  0
 44 85  1  0
 46 86  1  0
 49 87  1  0
 50 88  1  0
 50 89  1  0
 51 90  1  0
 51 91  1  0
 52 92  1  0
M  END
$$$$
[H]c1nc(N([H])c2c([H])c([H])c(N3C([H])([H])C([H])([H])C([H])(N4C([H])([H])C([H])([H])N(C([H])([H])[H])C([H])([H])C4([H])[H])C([H])([H])C3([H])[H])c([H])c2OC([H])([H])[H])nc(N([H])c2c([H])c([H])c([H])c([H])c2S(=O)(=O)C([H])(C([H])([H])[H])C([H])([H])[H])c1Cl
     RDKit          3D

 82 86  0  0  0  0  0  0  0  0999 V2000
   -0.1870    3.7228   -1.2569 C   0  0  0  0  0  0  0  0  0  0  0  0
    0.4390    2.5297   -0.8437 O   0  0  0  0  0  0  0  0  0  0  0  0
   -0.3483    1.4775   -0.4024 C   0  0  0  0  0  0  0  0  0  0  0  0
   -1.7220    1.6350   -0.3827 C   0  0  0  0  0  0  0  0  0  0  0  0
   -2.5624    0.6308    0.0436 C   0  0  0  0  0  0  0  0  0  0  0  0
   -1.9599   -0.5357    0.4478 C   0  0  0  0  0  0  0  0  0  0  0  0
   -0.5748   -0.7280    0.4408 C   0  0  0  0  0  0  0  0  0  0  0  0
    0.2576    0.2764    0.0150 C   0  0  0  0  0  0  0  0  0  0  0  0
    1.6540    0.2011   -0.0367 N   0  0  0  0  0  0  0  0  0  0  0  0
    2.4984   -0.8842    0.3177 C   0  0  0  0  0  0  0  0  0  0  0  0
    2.1033   -2.0726    0.7812 N   0  0  0  0  0  0  0  0  0  0  0  0
    2.9559   -3.0558    1.0957 C   0  0  0  0  0  0  0  0  0  0  0  0
    4.3092   -2.8632    0.9451 C   0  0  0  0  0  0  0  0  0  0  0  0
    5.4455   -4.1449    1.3534 Cl  0  0  0  0  0  0  0  0  0  0  0  0
    4.7527   -1.6166    0.4572 C   0  0  0  0  0  0  0  0  0  0  0  0
    6.1380   -1.4466    0.3110 N   0  0  0  0  0  0  0  0  0  0  0  0
    6.9009   -0.3576   -0.1368 C   0  0  0  0  0  0  0  0  0  0  0  0
    6.2766    0.8084   -0.5266 C   0  0  0  0  0  0  0  0  0  0  0  0
    7.0240    1.9039   -0.9778 C   0  0  0  0  0  0  0  0  0  0  0  0
    8.3820    1.8034   -1.0274 C   0  0  0  0  0  0  0  0  0  0  0  0
    9.0024    0.6381   -0.6374 C   0  0  0  0  0  0  0  0  0  0  0  0
    8.2961   -0.4485   -0.1920 C   0  0  0  0  0  0  0  0  0  0  0  0
    9.0842   -1.8926    0.2913 S   0  0  0  0  0  0  0  0  0  0  0  0
    8.6633   -3.0312   -0.6035 O   0  0  0  0  0  0  0  0  0  0  0  0
    8.8235   -2.3045    1.7132 O   0  0  0  0  0  0  0  0  0  0  0  0
   10.8572   -1.7881    0.1370 C   0  0  0  0  0  0  0  0  0  0  0  0
   11.2609   -1.6791   -1.2975 C   0  0  0  0  0  0  0  0  0  0  0  0
   11.4760   -0.7869    1.0544 C   0  0  0  0  0  0  0  0  0  0  0  0
    3.8248   -0.7008    0.1721 N   0  0  0  0  0  0  0  0  0  0  0  0
   -3.9818    0.8060    0.0512 N   0  0  0  0  0  0  0  0  0  0  0  0
   -4.5241    1.9609   -0.5784 C   0  0  0  0  0  0  0  0  0  0  0  0
   -6.0011    1.9283   -0.8544 C   0  0  0  0  0  0  0  0  0  0  0  0
   -6.8245    1.3726    0.2584 C   0  0  0  0  0  0  0  0  0  0  0  0
   -6.0036    0.6088    1.2781 C   0  0  0  0  0  0  0  0  0  0  0  0
   -4.8657   -0.1463    0.6796 C   0  0  0  0  0  0  0  0  0  0  0  0
   -7.9560    0.6086   -0.0875 N   0  0  0  0  0  0  0  0  0  0  0  0
   -7.7905   -0.5856   -0.8057 C   0  0  0  0  0  0  0  0  0  0  0  0
   -9.1362   -1.0235   -1.3907 C   0  0  0  0  0  0  0  0  0  0  0  0
  -10.1390   -0.8718   -0.3544 N   0  0  0  0  0  0  0  0  0  0  0  0
  -10.0361   -1.8235    0.7053 C   0  0  0  0  0  0  0  0  0  0  0  0
  -10.3349    0.4834    0.0484 C   0  0  0  0  0  0  0  0  0  0  0  0
   -9.1475    1.3193   -0.4248 C   0  0  0  0  0  0  0  0  0  0  0  0
    0.5375    4.4499   -1.6799 H   0  0  0  0  0  0  0  0  0  0  0  0
   -0.9481    3.5330   -2.0530 H   0  0  0  0  0  0  0  0  0  0  0  0
   -0.6880    4.2523   -0.4156 H   0  0  0  0  0  0  0  0  0  0  0  0
   -2.1476    2.5764   -0.7105 H   0  0  0  0  0  0  0  0  0  0  0  0
   -2.6020   -1.3517    0.7883 H   0  0  0  0  0  0  0  0  0  0  0  0
   -0.2121   -1.6859    0.7807 H   0  0  0  0  0  0  0  0  0  0  0  0
    2.1500    1.0935   -0.3956 H   0  0  0  0  0  0  0  0  0  0  0  0
    2.6174   -4.0222    1.4737 H   0  0  0  0  0  0  0  0  0  0  0  0
    6.7215   -2.3022    0.5911 H   0  0  0  0  0  0  0  0  0  0  0  0
    5.2202    0.9989   -0.5296 H   0  0  0  0  0  0  0  0  0  0  0  0
    6.5603    2.8305   -1.2896 H   0  0  0  0  0  0  0  0  0  0  0  0
    9.0220    2.6252   -1.3712 H   0  0  0  0  0  0  0  0  0  0  0  0
   10.0936    0.6299   -0.7052 H   0  0  0  0  0  0  0  0  0  0  0  0
   11.2252   -2.8031    0.4806 H   0  0  0  0  0  0  0  0  0  0  0  0
   11.9033   -0.7785   -1.4926 H   0  0  0  0  0  0  0  0  0  0  0  0
   10.3307   -1.5514   -1.9199 H   0  0  0  0  0  0  0  0  0  0  0  0
   11.7765   -2.5763   -1.6995 H   0  0  0  0  0  0  0  0  0  0  0  0
   12.0225   -1.2557    1.8769 H   0  0  0  0  0  0  0  0  0  0  0  0
   12.1781   -0.1622    0.4319 H   0  0  0  0  0  0  0  0  0  0  0  0
   10.7434   -0.0899    1.5079 H   0  0  0  0  0  0  0  0  0  0  0  0
   -4.2803    2.8410    0.0525 H   0  0  0  0  0  0  0  0  0  0  0  0
   -3.9354    2.1199   -1.5269 H   0  0  0  0  0  0  0  0  0  0  0  0
   -6.3084    2.9635   -1.1164 H   0  0  0  0  0  0  0  0  0  0  0  0
   -6.1470    1.3325   -1.7818 H   0  0  0  0  0  0  0  0  0  0  0  0
   -7.2139    2.2642    0.8421 H   0  0  0  0  0  0  0  0  0  0  0  0
   -6.6586   -0.1075    1.8153 H   0  0  0  0  0  0  0  0  0  0  0  0
   -5.5929    1.2907    2.0626 H   0  0  0  0  0  0  0  0  0  0  0  0
   -5.1731   -0.8869   -0.0780 H   0  0  0  0  0  0  0  0  0  0  0  0
   -4.3121   -0.6097    1.5260 H   0  0  0  0  0  0  0  0  0  0  0  0
   -7.5080   -1.4012   -0.0997 H   0  0  0  0  0  0  0  0  0  0  0  0
   -7.0082   -0.5774   -1.5870 H   0  0  0  0  0  0  0  0  0  0  0  0
   -9.4445   -0.3742   -2.2343 H   0  0  0  0  0  0  0  0  0  0  0  0
   -9.0261   -2.0597   -1.7202 H   0  0  0  0  0  0  0  0  0  0  0  0
   -9.1822   -2.5377    0.5321 H   0  0  0  0  0  0  0  0  0  0  0  0
   -9.9814   -1.3564    1.7041 H   0  0  0  0  0  0  0  0  0  0  0  0
  -10.9456   -2.4645    0.6802 H   0  0  0  0  0  0  0  0  0  0  0  0
  -11.2261    0.8855   -0.4545 H   0  0  0  0  0  0  0  0  0  0  0  0
  -10.4517    0.5517    1.1515 H   0  0  0  0  0  0  0  0  0  0  0  0
   -9.2778    1.5186   -1.4917 H   0  0  0  0  0  0  0  0  0  0  0  0
   -9.1611    2.2698    0.1783 H   0  0  0  0  0  0  0  0  0  0  0  0
  1  2  1  0
  2  3  1  0
  3  4  2  0
  4  5  1  0
  5  6  2  0
  6  7  1  0
  7  8  2  0
  8  9  1  0
  9 10  1  0
 10 11  2  0
 11 12  1  0
 12 13  2  0
 13 14  1  0
 13 15  1  0
 15 16  1  0
 16 17  1  0
 17 18  2  0
 18 19  1  0
 19 20  2  0
 20 21  1  0
 21 22  2  0
 22 23  1  0
 23 24  2  0
 23 25  2  0
 23 26  1  0
 26 27  1  0
 26 28  1  0
 15 29  2  0
  5 30  1  0
 30 31  1  0
 31 32  1  0
 32 33  1  0
 33 34  1  0
 34 35  1  0
 33 36  1  0
 36 37  1  0
 37 38  1  0
 38 39  1  0
 39 40  1  0
 39 41  1  0
 41 42  1  0
  8  3  1  0
 29 10  1  0
 35 30  1  0
 42 36  1  0
 22 17  1  0
  1 43  1  0
  1 44  1  0
  1 45  1  0
  4 46  1  0
  6 47  1  0
  7 48  1  0
  9 49  1  0
 12 50  1  0
 16 51  1  0
 18 52  1  0
 19 53  1  0
 20 54  1  0
 21 55  1  0
 26 56  1  0
 27 57  1  0
 27 58  1  0
 27 59  1  0
 28 60  1  0
 28 61  1  0
 28 62  1  0
 31 63  1  0
 31 64  1  0
 32 65  1  0
 32 66  1  0
 33 67  1  0
 34 68  1  0
 34 69  1  0
 35 70  1  0
 35 71  1  0
 37 72  1  0
 37 73  1  0
 38 74  1  0
 38 75  1  0
 40 76  1  0
 40 77  1  0
 40 78  1  0
 41 79  1  0
 41 80  1  0
 42 81  1  0
 42 82  1  0
M  END
$$$$
[H]OC(=O)[C@@]([H])(N([H])C(=O)[C@@]1([H])N(C(=O)[C@@]([H])(N([H])C(=O)C([H])([H])[H])C([H])(C([H])([H])[H])C([H])([H])[H])C([H])([H])c2c([H])c([H])c([H])c([H])c2C1([H])[H])C([H])([H])C([H])([H])SC([H])([H])[H]
     RDKit          3D

 62 63  0  0  0  0  0  0  0  0999 V2000
    7.0302    3.4674    1.1277 C   0  0  0  0  0  0  0  0  0  0  0  0
    5.3752    3.5700    1.8422 S   0  0  0  0  0  0  0  0  0  0  0  0
    4.5813    1.9402    1.9169 C   0  0  0  0  0  0  0  0  0  0  0  0
    4.3471    1.4856    0.4958 C   0  0  0  0  0  0  0  0  0  0  0  0
    3.6851    0.1274    0.4383 C   0  0  2  0  0  0  0  0  0  0  0  0
    2.4115    0.0951    1.0816 N   0  0  0  0  0  0  0  0  0  0  0  0
    1.1852   -0.1787    0.4381 C   0  0  0  0  0  0  0  0  0  0  0  0
    1.2048   -0.4135   -0.7930 O   0  0  0  0  0  0  0  0  0  0  0  0
   -0.0961   -0.1975    1.1526 C   0  0  2  0  0  0  0  0  0  0  0  0
   -0.1085   -1.1821    2.3038 C   0  0  0  0  0  0  0  0  0  0  0  0
   -0.2479   -2.5603    1.8379 C   0  0  0  0  0  0  0  0  0  0  0  0
    0.2121   -3.5743    2.6362 C   0  0  0  0  0  0  0  0  0  0  0  0
    0.1231   -4.9023    2.2649 C   0  0  0  0  0  0  0  0  0  0  0  0
   -0.4500   -5.2114    1.0467 C   0  0  0  0  0  0  0  0  0  0  0  0
   -0.9153   -4.2077    0.2367 C   0  0  0  0  0  0  0  0  0  0  0  0
   -0.8144   -2.8576    0.6356 C   0  0  0  0  0  0  0  0  0  0  0  0
   -1.3311   -1.8081   -0.2585 C   0  0  0  0  0  0  0  0  0  0  0  0
   -1.2138   -0.5125    0.2866 N   0  0  0  0  0  0  0  0  0  0  0  0
   -2.1713    0.5414    0.0423 C   0  0  0  0  0  0  0  0  0  0  0  0
   -2.0030    1.6634    0.6331 O   0  0  0  0  0  0  0  0  0  0  0  0
   -3.3333    0.4293   -0.8362 C   0  0  1  0  0  0  0  0  0  0  0  0
   -4.1449    1.6605   -0.7015 N   0  0  0  0  0  0  0  0  0  0  0  0
   -5.5195    1.6027   -0.3922 C   0  0  0  0  0  0  0  0  0  0  0  0
   -6.3137    2.8333   -0.2609 C   0  0  0  0  0  0  0  0  0  0  0  0
   -6.0682    0.4897   -0.2279 O   0  0  0  0  0  0  0  0  0  0  0  0
   -2.9127    0.3174   -2.3149 C   0  0  0  0  0  0  0  0  0  0  0  0
   -2.1336    1.5166   -2.7558 C   0  0  0  0  0  0  0  0  0  0  0  0
   -4.1961    0.2019   -3.1105 C   0  0  0  0  0  0  0  0  0  0  0  0
    4.5747   -0.8786    1.0732 C   0  0  0  0  0  0  0  0  0  0  0  0
    5.8773   -0.9916    0.5729 O   0  0  0  0  0  0  0  0  0  0  0  0
    4.1620   -1.5828    2.0098 O   0  0  0  0  0  0  0  0  0  0  0  0
    7.2396    4.4489    0.6415 H   0  0  0  0  0  0  0  0  0  0  0  0
    7.8120    3.3567    1.9289 H   0  0  0  0  0  0  0  0  0  0  0  0
    7.1352    2.6663    0.3834 H   0  0  0  0  0  0  0  0  0  0  0  0
    5.1589    1.2196    2.5028 H   0  0  0  0  0  0  0  0  0  0  0  0
    3.5733    2.0909    2.3641 H   0  0  0  0  0  0  0  0  0  0  0  0
    3.7472    2.2503   -0.0311 H   0  0  0  0  0  0  0  0  0  0  0  0
    5.3372    1.4080    0.0089 H   0  0  0  0  0  0  0  0  0  0  0  0
    3.5360   -0.0966   -0.6491 H   0  0  0  0  0  0  0  0  0  0  0  0
    2.3842    0.2921    2.1258 H   0  0  0  0  0  0  0  0  0  0  0  0
   -0.2183    0.8123    1.6223 H   0  0  0  0  0  0  0  0  0  0  0  0
   -1.0239   -0.9432    2.9112 H   0  0  0  0  0  0  0  0  0  0  0  0
    0.7506   -1.0915    2.9662 H   0  0  0  0  0  0  0  0  0  0  0  0
    0.6687   -3.3747    3.6005 H   0  0  0  0  0  0  0  0  0  0  0  0
    0.4832   -5.7191    2.8861 H   0  0  0  0  0  0  0  0  0  0  0  0
   -0.5460   -6.2482    0.7023 H   0  0  0  0  0  0  0  0  0  0  0  0
   -1.3665   -4.3972   -0.7144 H   0  0  0  0  0  0  0  0  0  0  0  0
   -2.3730   -2.0637   -0.5928 H   0  0  0  0  0  0  0  0  0  0  0  0
   -0.7368   -1.9236   -1.2175 H   0  0  0  0  0  0  0  0  0  0  0  0
   -4.0104   -0.4041   -0.6559 H   0  0  0  0  0  0  0  0  0  0  0  0
   -3.7092    2.5954   -0.8342 H   0  0  0  0  0  0  0  0  0  0  0  0
   -5.7326    3.5801    0.2987 H   0  0  0  0  0  0  0  0  0  0  0  0
   -7.2723    2.6436    0.3002 H   0  0  0  0  0  0  0  0  0  0  0  0
   -6.6526    3.2426   -1.2452 H   0  0  0  0  0  0  0  0  0  0  0  0
   -2.3444   -0.6141   -2.4145 H   0  0  0  0  0  0  0  0  0  0  0  0
   -1.1026    1.2210   -3.1001 H   0  0  0  0  0  0  0  0  0  0  0  0
   -2.0365    2.2958   -1.9997 H   0  0  0  0  0  0  0  0  0  0  0  0
   -2.6303    1.9759   -3.6475 H   0  0  0  0  0  0  0  0  0  0  0  0
   -3.9817    0.1553   -4.2069 H   0  0  0  0  0  0  0  0  0  0  0  0
   -4.7923   -0.6645   -2.7840 H   0  0  0  0  0  0  0  0  0  0  0  0
   -4.7699    1.1562   -2.9220 H   0  0  0  0  0  0  0  0  0  0  0  0
    6.6770   -0.7535    1.1709 H   0  0  0  0  0  0  0  0  0  0  0  0
  1  2  1  0
  2  3  1  0
  3  4  1  0
  4  5  1  0
  5  6  1  0
  6  7  1  0
  7  8  2  0
  7  9  1  0
  9 10  1  0
 10 11  1  0
 11 12  2  0
 12 13  1  0
 13 14  2  0
 14 15  1  0
 15 16  2  0
 16 17  1  0
 17 18  1  0
 18 19  1  0
 19 20  2  0
 19 21  1  0
 21 22  1  0
 22 23  1  0
 23 24  1  0
 23 25  2  0
 21 26  1  0
 26 27  1  0
 26 28  1  0
  5 29  1  0
 29 30  1  0
 29 31  2  0
 18  9  1  0
 16 11  1  0
  1 32  1  0
  1 33  1  0
  1 34  1  0
  3 35  1  0
  3 36  1  0
  4 37  1  0
  4 38  1  0
  5 39  1  6
  6 40  1  0
  9 41  1  1
 10 42  1  0
 10 43  1  0
 12 44  1  0
 13 45  1  0
 14 46  1  0
 15 47  1  0
 17 48  1  0
 17 49  1  0
 21 50  1  1
 22 51  1  0
 24 52  1  0
 24 53  1  0
 24 54  1  0
 26 55  1  0
 27 56  1  0
 27 57  1  0
 27 58  1  0
 28 59  1  0
 28 60  1  0
 28 61  1  0
 30 62  1  0
M  END
$$$$
[H]C1=C2[C@]([H])(C([H])([H])C([H])([H])[H])C([H])([H])[C@]3([H])[C@]([H])(C([H])([H])C([H])([H])[C@]4(C([H])([H])[H])[C@@]([H])(C([H])([H])[H])C([H])([H])C([H])([H])C([H])([H])[C@@]34[H])[C@@]2(C([H])([H])[H])C([H])([H])C([H])([H])C1=O
     RDKit          3D

 60 63  0  0  0  0  0  0  0  0999 V2000
    1.8212    4.0180    0.4377 C   0  0  0  0  0  0  0  0  0  0  0  0
    2.7139    2.7935    0.5451 C   0  0  0  0  0  0  0  0  0  0  0  0
    1.9715    1.5854   -0.0031 C   0  0  2  0  0  0  0  0  0  0  0  0
    0.7180    1.4273    0.8471 C   0  0  0  0  0  0  0  0  0  0  0  0
   -0.0936    0.2331    0.4872 C   0  0  1  0  0  0  0  0  0  0  0  0
   -1.4158    0.5554   -0.1678 C   0  0  2  0  0  0  0  0  0  0  0  0
   -2.1386    1.6760    0.4800 C   0  0  0  0  0  0  0  0  0  0  0  0
   -3.6052    1.4935    0.6346 C   0  0  0  0  0  0  0  0  0  0  0  0
   -4.1570    0.8235   -0.5766 C   0  0  0  0  0  0  0  0  0  0  0  0
   -3.5804   -0.5252   -0.8450 C   0  0  2  0  0  0  0  0  0  0  0  0
   -4.5693   -1.5680   -0.4089 C   0  0  0  0  0  0  0  0  0  0  0  0
   -2.2051   -0.7285   -0.2490 C   0  0  2  0  0  0  0  0  0  0  0  0
   -2.2776   -1.4123    1.1135 C   0  0  0  0  0  0  0  0  0  0  0  0
   -1.4877   -1.6977   -1.1664 C   0  0  0  0  0  0  0  0  0  0  0  0
   -0.0509   -1.9035   -0.8103 C   0  0  0  0  0  0  0  0  0  0  0  0
    0.6749   -0.6470   -0.4734 C   0  0  2  0  0  0  0  0  0  0  0  0
    2.0354   -0.9360    0.0812 C   0  0  1  0  0  0  0  0  0  0  0  0
    1.9740   -1.4481    1.5045 C   0  0  0  0  0  0  0  0  0  0  0  0
    2.7253   -1.9227   -0.8286 C   0  0  0  0  0  0  0  0  0  0  0  0
    4.1501   -2.1881   -0.3898 C   0  0  0  0  0  0  0  0  0  0  0  0
    4.7761   -0.9468    0.1596 C   0  0  0  0  0  0  0  0  0  0  0  0
    5.9004   -1.0368    0.6719 O   0  0  0  0  0  0  0  0  0  0  0  0
    4.0918    0.3370    0.0989 C   0  0  0  0  0  0  0  0  0  0  0  0
    2.7899    0.3592    0.0600 C   0  0  0  0  0  0  0  0  0  0  0  0
    2.4941    4.9182    0.4405 H   0  0  0  0  0  0  0  0  0  0  0  0
    1.1219    4.1129    1.2684 H   0  0  0  0  0  0  0  0  0  0  0  0
    1.3244    3.9972   -0.5549 H   0  0  0  0  0  0  0  0  0  0  0  0
    3.6064    3.0340   -0.1048 H   0  0  0  0  0  0  0  0  0  0  0  0
    2.9996    2.5703    1.5823 H   0  0  0  0  0  0  0  0  0  0  0  0
    1.6689    1.8541   -1.0409 H   0  0  0  0  0  0  0  0  0  0  0  0
    0.1372    2.3802    0.7922 H   0  0  0  0  0  0  0  0  0  0  0  0
    1.0833    1.3829    1.9100 H   0  0  0  0  0  0  0  0  0  0  0  0
   -0.3237   -0.3168    1.4329 H   0  0  0  0  0  0  0  0  0  0  0  0
   -1.1757    0.8361   -1.2354 H   0  0  0  0  0  0  0  0  0  0  0  0
   -1.9725    2.6223   -0.1101 H   0  0  0  0  0  0  0  0  0  0  0  0
   -1.7229    1.9229    1.4988 H   0  0  0  0  0  0  0  0  0  0  0  0
   -4.0802    2.5172    0.6840 H   0  0  0  0  0  0  0  0  0  0  0  0
   -3.9220    0.9840    1.5571 H   0  0  0  0  0  0  0  0  0  0  0  0
   -4.0484    1.5100   -1.4655 H   0  0  0  0  0  0  0  0  0  0  0  0
   -5.2735    0.7471   -0.4300 H   0  0  0  0  0  0  0  0  0  0  0  0
   -3.5006   -0.6225   -1.9689 H   0  0  0  0  0  0  0  0  0  0  0  0
   -4.9789   -1.3901    0.6007 H   0  0  0  0  0  0  0  0  0  0  0  0
   -4.1541   -2.6016   -0.5314 H   0  0  0  0  0  0  0  0  0  0  0  0
   -5.4385   -1.5180   -1.1092 H   0  0  0  0  0  0  0  0  0  0  0  0
   -2.2598   -0.7024    1.9456 H   0  0  0  0  0  0  0  0  0  0  0  0
   -3.1317   -2.1065    1.1726 H   0  0  0  0  0  0  0  0  0  0  0  0
   -1.3628   -2.0623    1.2490 H   0  0  0  0  0  0  0  0  0  0  0  0
   -2.0281   -2.6642   -1.0993 H   0  0  0  0  0  0  0  0  0  0  0  0
   -1.6105   -1.3277   -2.2000 H   0  0  0  0  0  0  0  0  0  0  0  0
    0.4489   -2.3343   -1.7283 H   0  0  0  0  0  0  0  0  0  0  0  0
    0.0802   -2.7143   -0.0372 H   0  0  0  0  0  0  0  0  0  0  0  0
    0.8077   -0.0606   -1.4097 H   0  0  0  0  0  0  0  0  0  0  0  0
    2.7130   -2.2704    1.5911 H   0  0  0  0  0  0  0  0  0  0  0  0
    0.9759   -1.8522    1.7713 H   0  0  0  0  0  0  0  0  0  0  0  0
    2.3130   -0.6569    2.2041 H   0  0  0  0  0  0  0  0  0  0  0  0
    2.2071   -2.8828   -0.8518 H   0  0  0  0  0  0  0  0  0  0  0  0
    2.7483   -1.4504   -1.8442 H   0  0  0  0  0  0  0  0  0  0  0  0
    4.1537   -3.0122    0.3525 H   0  0  0  0  0  0  0  0  0  0  0  0
    4.7149   -2.4650   -1.3187 H   0  0  0  0  0  0  0  0  0  0  0  0
    4.6239    1.2809    0.0854 H   0  0  0  0  0  0  0  0  0  0  0  0
  1  2  1  0
  2  3  1  0
  3  4  1  0
  4  5  1  0
  5  6  1  0
  6  7  1  0
  7  8  1  0
  8  9  1  0
  9 10  1  0
 10 11  1  0
 10 12  1  0
 12 13  1  1
 12 14  1  0
 14 15  1  0
 15 16  1  0
 16 17  1  0
 17 18  1  1
 17 19  1  0
 19 20  1  0
 20 21  1  0
 21 22  2  0
 21 23  1  0
 23 24  2  0
 24  3  1  0
 16  5  1  0
 24 17  1  0
 12  6  1  0
  1 25  1  0
  1 26  1  0
  1 27  1  0
  2 28  1  0
  2 29  1  0
  3 30  1  6
  4 31  1  0
  4 32  1  0
  5 33  1  1
  6 34  1  6
  7 35  1  0
  7 36  1  0
  8 37  1  0
  8 38  1  0
  9 39  1  0
  9 40  1  0
 10 41  1  6
 11 42  1  0
 11 43  1  0
 11 44  1  0
 13 45  1  0
 13 46  1  0
 13 47  1  0
 14 48  1  0
 14 49  1  0
 15 50  1  0
 15 51  1  0
 16 52  1  6
 18 53  1  0
 18 54  1  0
 18 55  1  0
 19 56  1  0
 19 57  1  0
 20 58  1  0
 20 59  1  0
 23 60  1  0
M  END
$$$$
[H]c1nc2c(C([H])([H])[H])c([H])c(-c3c(C([H])(C([H])([H])[H])C([H])([H])[H])c4c([H])c(C5([H])C([H])([H])C([H])([H])N(C(=O)C([H])([H])N(C([H])([H])[H])C([H])([H])[H])C([H])([H])C5([H])[H])c([H])c([H])c4n3[H])c([H])n2n1
     RDKit          3D

 68 72  0  0  0  0  0  0  0  0999 V2000
   -1.9775   -2.4971   -0.3769 C   0  0  0  0  0  0  0  0  0  0  0  0
   -2.9471   -1.4049   -0.7768 C   0  0  0  0  0  0  0  0  0  0  0  0
   -4.1821   -1.9065   -1.3771 C   0  0  0  0  0  0  0  0  0  0  0  0
   -2.8800   -0.1694    0.0011 C   0  0  0  0  0  0  0  0  0  0  0  0
   -3.7922    0.7522    0.4285 C   0  0  0  0  0  0  0  0  0  0  0  0
   -3.1615    1.8647    0.9181 N   0  0  0  0  0  0  0  0  0  0  0  0
   -1.8656    1.6753    0.8172 C   0  0  0  0  0  0  0  0  0  0  0  0
   -0.7681    2.4972    1.1290 C   0  0  0  0  0  0  0  0  0  0  0  0
    0.5071    2.0596    0.8721 C   0  0  0  0  0  0  0  0  0  0  0  0
    0.7956    0.8404    0.3149 C   0  0  0  0  0  0  0  0  0  0  0  0
   -0.3282    0.0245    0.0112 C   0  0  0  0  0  0  0  0  0  0  0  0
   -1.6127    0.4495    0.2639 C   0  0  0  0  0  0  0  0  0  0  0  0
    2.1436    0.4143   -0.0245 C   0  0  0  0  0  0  0  0  0  0  0  0
    2.3815   -1.0536   -0.2206 C   0  0  0  0  0  0  0  0  0  0  0  0
    3.7481   -1.2247   -0.7875 C   0  0  0  0  0  0  0  0  0  0  0  0
    4.7959   -0.3659   -0.3379 N   0  0  0  0  0  0  0  0  0  0  0  0
    4.5503    0.9462    0.1868 C   0  0  0  0  0  0  0  0  0  0  0  0
    3.2025    0.9829    0.8931 C   0  0  0  0  0  0  0  0  0  0  0  0
    6.1824   -0.8107   -0.4356 C   0  0  0  0  0  0  0  0  0  0  0  0
    6.3818   -1.9435   -0.8947 O   0  0  0  0  0  0  0  0  0  0  0  0
    7.2410    0.0920    0.0020 C   0  0  0  0  0  0  0  0  0  0  0  0
    8.5392   -0.4843   -0.1835 N   0  0  0  0  0  0  0  0  0  0  0  0
    9.5841    0.4461    0.2149 C   0  0  0  0  0  0  0  0  0  0  0  0
    8.7002   -1.6912    0.5691 C   0  0  0  0  0  0  0  0  0  0  0  0
   -5.2366    0.7359    0.4004 C   0  0  0  0  0  0  0  0  0  0  0  0
   -6.0715   -0.2836    0.6450 C   0  0  0  0  0  0  0  0  0  0  0  0
   -7.4325   -0.1562    0.5021 C   0  0  0  0  0  0  0  0  0  0  0  0
   -8.3070   -1.3355    0.7854 C   0  0  0  0  0  0  0  0  0  0  0  0
   -8.0023    1.0365    0.0982 C   0  0  0  0  0  0  0  0  0  0  0  0
   -9.2755    1.3855   -0.0998 N   0  0  0  0  0  0  0  0  0  0  0  0
   -9.2426    2.6886   -0.4891 C   0  0  0  0  0  0  0  0  0  0  0  0
   -7.9634    3.0638   -0.5066 N   0  0  0  0  0  0  0  0  0  0  0  0
   -7.1644    2.0681   -0.1483 N   0  0  0  0  0  0  0  0  0  0  0  0
   -5.8425    1.9438   -0.0089 C   0  0  0  0  0  0  0  0  0  0  0  0
   -1.5598   -2.2979    0.6034 H   0  0  0  0  0  0  0  0  0  0  0  0
   -2.5739   -3.4762   -0.2881 H   0  0  0  0  0  0  0  0  0  0  0  0
   -1.2271   -2.6583   -1.1306 H   0  0  0  0  0  0  0  0  0  0  0  0
   -2.3704   -1.0298   -1.7975 H   0  0  0  0  0  0  0  0  0  0  0  0
   -3.8823   -2.6359   -2.2350 H   0  0  0  0  0  0  0  0  0  0  0  0
   -4.7991   -1.1793   -1.9237 H   0  0  0  0  0  0  0  0  0  0  0  0
   -4.7741   -2.6240   -0.7307 H   0  0  0  0  0  0  0  0  0  0  0  0
   -3.6051    2.7428    1.3140 H   0  0  0  0  0  0  0  0  0  0  0  0
   -0.9874    3.4559    1.5666 H   0  0  0  0  0  0  0  0  0  0  0  0
    1.3197    2.7438    1.1311 H   0  0  0  0  0  0  0  0  0  0  0  0
   -0.0661   -0.8988   -0.4285 H   0  0  0  0  0  0  0  0  0  0  0  0
    2.4070    0.8816   -1.0402 H   0  0  0  0  0  0  0  0  0  0  0  0
    2.1953   -1.6540    0.6812 H   0  0  0  0  0  0  0  0  0  0  0  0
    1.6683   -1.4221   -1.0069 H   0  0  0  0  0  0  0  0  0  0  0  0
    4.1376   -2.2779   -0.6815 H   0  0  0  0  0  0  0  0  0  0  0  0
    3.6887   -1.0967   -1.9029 H   0  0  0  0  0  0  0  0  0  0  0  0
    5.3086    1.2760    0.9368 H   0  0  0  0  0  0  0  0  0  0  0  0
    4.4783    1.7148   -0.6351 H   0  0  0  0  0  0  0  0  0  0  0  0
    3.3234    0.3890    1.8332 H   0  0  0  0  0  0  0  0  0  0  0  0
    2.9943    2.0423    1.0711 H   0  0  0  0  0  0  0  0  0  0  0  0
    7.1004    0.3345    1.0834 H   0  0  0  0  0  0  0  0  0  0  0  0
    7.1956    1.0651   -0.5427 H   0  0  0  0  0  0  0  0  0  0  0  0
    9.9537    0.2287    1.2340 H   0  0  0  0  0  0  0  0  0  0  0  0
    9.2301    1.5087    0.1810 H   0  0  0  0  0  0  0  0  0  0  0  0
   10.4118    0.3536   -0.5188 H   0  0  0  0  0  0  0  0  0  0  0  0
    7.9159   -1.7459    1.3393 H   0  0  0  0  0  0  0  0  0  0  0  0
    9.7298   -1.7120    1.0374 H   0  0  0  0  0  0  0  0  0  0  0  0
    8.7047   -2.6173   -0.0726 H   0  0  0  0  0  0  0  0  0  0  0  0
   -5.7122   -1.2280    1.0026 H   0  0  0  0  0  0  0  0  0  0  0  0
   -8.1435   -1.6096    1.8588 H   0  0  0  0  0  0  0  0  0  0  0  0
   -9.3555   -1.0558    0.6577 H   0  0  0  0  0  0  0  0  0  0  0  0
   -8.0374   -2.2082    0.1574 H   0  0  0  0  0  0  0  0  0  0  0  0
  -10.1569    3.2271   -0.7172 H   0  0  0  0  0  0  0  0  0  0  0  0
   -5.2121    2.8242   -0.2232 H   0  0  0  0  0  0  0  0  0  0  0  0
  1  2  1  0
  2  3  1  0
  2  4  1  0
  4  5  2  0
  5  6  1  0
  6  7  1  0
  7  8  2  0
  8  9  1  0
  9 10  2  0
 10 11  1  0
 11 12  2  0
 10 13  1  0
 13 14  1  0
 14 15  1  0
 15 16  1  0
 16 17  1  0
 17 18  1  0
 16 19  1  0
 19 20  2  0
 19 21  1  0
 21 22  1  0
 22 23  1  0
 22 24  1  0
  5 25  1  0
 25 26  1  0
 26 27  2  0
 27 28  1  0
 27 29  1  0
 29 30  2  0
 30 31  1  0
 31 32  2  0
 32 33  1  0
 33 34  1  0
 12  4  1  0
 18 13  1  0
 34 25  2  0
 12  7  1  0
 33 29  1  0
  1 35  1  0
  1 36  1  0
  1 37  1  0
  2 38  1  0
  3 39  1  0
  3 40  1  0
  3 41  1  0
  6 42  1  0
  8 43  1  0
  9 44  1  0
 11 45  1  0
 13 46  1  0
 14 47  1  0
 14 48  1  0
 15 49  1  0
 15 50  1  0
 17 51  1  0
 17 52  1  0
 18 53  1  0
 18 54  1  0
 21 55  1  0
 21 56  1  0
 23 57  1  0
 23 58  1  0
 23 59  1  0
 24 60  1  0
 24 61  1  0
 24 62  1  0
 26 63  1  0
 28 64  1  0
 28 65  1  0
 28 66  1  0
 31 67  1  0
 34 68  1  0
M  END
$$$$
[H]Oc1c([H])c(O[H])c(C(C([H])([H])[H])(C([H])([H])[H])C([H])([H])[H])c([H])c1C(=O)N1C([H])([H])c2c([H])c([H])c([H])c([H])c2C1([H])[H]
     RDKit          3D

 44 46  0  0  0  0  0  0  0  0999 V2000
   -2.0940    1.9740   -0.4670 C   0  0  0  0  0  0  0  0  0  0  0  0
   -3.1404    1.0271    0.1133 C   0  0  0  0  0  0  0  0  0  0  0  0
   -3.7061    1.6758    1.3365 C   0  0  0  0  0  0  0  0  0  0  0  0
   -4.1879    0.8539   -0.9726 C   0  0  0  0  0  0  0  0  0  0  0  0
   -2.4965   -0.2517    0.4650 C   0  0  0  0  0  0  0  0  0  0  0  0
   -1.1233   -0.4359    0.2497 C   0  0  0  0  0  0  0  0  0  0  0  0
   -0.4574   -1.6040    0.5567 C   0  0  0  0  0  0  0  0  0  0  0  0
    0.9433   -1.8611    0.3419 C   0  0  0  0  0  0  0  0  0  0  0  0
    1.3241   -3.0736    0.5712 O   0  0  0  0  0  0  0  0  0  0  0  0
    1.9771   -1.0137   -0.0763 N   0  0  0  0  0  0  0  0  0  0  0  0
    3.3564   -1.4767   -0.2551 C   0  0  0  0  0  0  0  0  0  0  0  0
    4.1407   -0.2528   -0.5077 C   0  0  0  0  0  0  0  0  0  0  0  0
    5.5217   -0.1363   -0.6604 C   0  0  0  0  0  0  0  0  0  0  0  0
    6.0638    1.1082   -0.8947 C   0  0  0  0  0  0  0  0  0  0  0  0
    5.2791    2.2384   -0.9820 C   0  0  0  0  0  0  0  0  0  0  0  0
    3.9206    2.0659   -0.8233 C   0  0  0  0  0  0  0  0  0  0  0  0
    3.3490    0.8410   -0.5889 C   0  0  0  0  0  0  0  0  0  0  0  0
    1.9405    0.3814   -0.3789 C   0  0  0  0  0  0  0  0  0  0  0  0
   -1.2464   -2.6281    1.1104 C   0  0  0  0  0  0  0  0  0  0  0  0
   -0.6202   -3.8346    1.4402 O   0  0  0  0  0  0  0  0  0  0  0  0
   -2.5871   -2.4354    1.3155 C   0  0  0  0  0  0  0  0  0  0  0  0
   -3.2474   -1.2692    1.0086 C   0  0  0  0  0  0  0  0  0  0  0  0
   -4.6163   -1.1294    1.2398 O   0  0  0  0  0  0  0  0  0  0  0  0
   -2.6251    2.9347   -0.7355 H   0  0  0  0  0  0  0  0  0  0  0  0
   -1.6990    1.5944   -1.4205 H   0  0  0  0  0  0  0  0  0  0  0  0
   -1.3361    2.2385    0.2818 H   0  0  0  0  0  0  0  0  0  0  0  0
   -3.0597    2.4927    1.6709 H   0  0  0  0  0  0  0  0  0  0  0  0
   -3.8292    0.9940    2.2004 H   0  0  0  0  0  0  0  0  0  0  0  0
   -4.7025    2.0967    1.0955 H   0  0  0  0  0  0  0  0  0  0  0  0
   -4.1577   -0.1274   -1.4509 H   0  0  0  0  0  0  0  0  0  0  0  0
   -5.1776    1.0505   -0.4807 H   0  0  0  0  0  0  0  0  0  0  0  0
   -4.1030    1.6226   -1.7686 H   0  0  0  0  0  0  0  0  0  0  0  0
   -0.6043    0.3985   -0.1897 H   0  0  0  0  0  0  0  0  0  0  0  0
    3.7525   -1.9722    0.6327 H   0  0  0  0  0  0  0  0  0  0  0  0
    3.4180   -2.1977   -1.1093 H   0  0  0  0  0  0  0  0  0  0  0  0
    6.1472   -1.0290   -0.5920 H   0  0  0  0  0  0  0  0  0  0  0  0
    7.1329    1.1967   -1.0126 H   0  0  0  0  0  0  0  0  0  0  0  0
    5.7136    3.2263   -1.1684 H   0  0  0  0  0  0  0  0  0  0  0  0
    3.2932    2.9526   -0.8906 H   0  0  0  0  0  0  0  0  0  0  0  0
    1.5156    0.8955    0.5150 H   0  0  0  0  0  0  0  0  0  0  0  0
    1.4096    0.6500   -1.3082 H   0  0  0  0  0  0  0  0  0  0  0  0
   -1.1460   -4.5873    1.8360 H   0  0  0  0  0  0  0  0  0  0  0  0
   -3.1395   -3.2725    1.7489 H   0  0  0  0  0  0  0  0  0  0  0  0
   -5.0964   -1.9204    1.6408 H   0  0  0  0  0  0  0  0  0  0  0  0
  1  2  1  0
  2  3  1  0
  2  4  1  0
  2  5  1  0
  5  6  2  0
  6  7  1  0
  7  8  1  0
  8  9  2  0
  8 10  1  0
 10 11  1  0
 11 12  1  0
 12 13  2  0
 13 14  1  0
 14 15  2  0
 15 16  1  0
 16 17  2  0
 17 18  1  0
  7 19  2  0
 19 20  1  0
 19 21  1  0
 21 22  2  0
 22 23  1  0
 22  5  1  0
 18 10  1  0
 17 12  1  0
  1 24  1  0
  1 25  1  0
  1 26  1  0
  3 27  1  0
  3 28  1  0
  3 29  1  0
  4 30  1  0
  4 31  1  0
  4 32  1  0
  6 33  1  0
 11 34  1  0
 11 35  1  0
 13 36  1  0
 14 37  1  0
 15 38  1  0
 16 39  1  0
 18 40  1  0
 18 41  1  0
 20 42  1  0
 21 43  1  0
 23 44  1  0
M  END
$$$$
[H]C1=C2C([H])([H])C([H])([H])C3([H])C4([H])C([H])([H])C([H])([H])C(=O)[C@@]4(C([H])([H])[H])C([H])([H])C([H])([H])C3([H])[C@@]2(C([H])([H])[H])C([H])([H])C([H])([H])C1=O
     RDKit          3D

 47 50  0  0  0  0  0  0  0  0999 V2000
    3.4710    1.1870    1.2410 C   0  0  0  0  0  0  0  0  0  0  0  0
    2.5045    0.8327    0.1005 C   0  0  2  0  0  0  0  0  0  0  0  0
    1.4611    1.9009    0.0807 C   0  0  0  0  0  0  0  0  0  0  0  0
    0.2294    1.5707   -0.6713 C   0  0  0  0  0  0  0  0  0  0  0  0
   -0.3157    0.2019   -0.4445 C   0  0  0  0  0  0  0  0  0  0  0  0
    0.5176   -0.6760    0.4163 C   0  0  0  0  0  0  0  0  0  0  0  0
    0.1462   -2.1231    0.0520 C   0  0  0  0  0  0  0  0  0  0  0  0
   -1.2567   -2.3334    0.5102 C   0  0  0  0  0  0  0  0  0  0  0  0
   -2.1704   -1.1962    0.2424 C   0  0  0  0  0  0  0  0  0  0  0  0
   -3.4721   -1.5250    0.1453 C   0  0  0  0  0  0  0  0  0  0  0  0
   -4.4897   -0.5302   -0.1132 C   0  0  0  0  0  0  0  0  0  0  0  0
   -5.7062   -0.8098   -0.1425 O   0  0  0  0  0  0  0  0  0  0  0  0
   -4.0707    0.8680   -0.3510 C   0  0  0  0  0  0  0  0  0  0  0  0
   -2.6720    0.8566   -0.9147 C   0  0  0  0  0  0  0  0  0  0  0  0
   -1.7345    0.2154    0.0861 C   0  0  2  0  0  0  0  0  0  0  0  0
   -1.7677    0.9431    1.4137 C   0  0  0  0  0  0  0  0  0  0  0  0
    1.9827   -0.5499    0.2462 C   0  0  0  0  0  0  0  0  0  0  0  0
    2.4414   -1.3470   -0.9589 C   0  0  0  0  0  0  0  0  0  0  0  0
    3.7422   -0.6231   -1.3004 C   0  0  0  0  0  0  0  0  0  0  0  0
    3.3240    0.7896   -1.1330 C   0  0  0  0  0  0  0  0  0  0  0  0
    3.6201    1.6906   -1.8831 O   0  0  0  0  0  0  0  0  0  0  0  0
    2.8388    1.4843    2.0992 H   0  0  0  0  0  0  0  0  0  0  0  0
    4.0280    2.0921    0.9130 H   0  0  0  0  0  0  0  0  0  0  0  0
    4.1425    0.3598    1.4665 H   0  0  0  0  0  0  0  0  0  0  0  0
    1.9297    2.8018   -0.4142 H   0  0  0  0  0  0  0  0  0  0  0  0
    1.2664    2.2187    1.1217 H   0  0  0  0  0  0  0  0  0  0  0  0
   -0.5646    2.3060   -0.3548 H   0  0  0  0  0  0  0  0  0  0  0  0
    0.4035    1.7960   -1.7597 H   0  0  0  0  0  0  0  0  0  0  0  0
   -0.3831   -0.2945   -1.4578 H   0  0  0  0  0  0  0  0  0  0  0  0
    0.2779   -0.5936    1.5073 H   0  0  0  0  0  0  0  0  0  0  0  0
    0.8135   -2.8008    0.5959 H   0  0  0  0  0  0  0  0  0  0  0  0
    0.1819   -2.2610   -1.0511 H   0  0  0  0  0  0  0  0  0  0  0  0
   -1.3103   -2.5271    1.6062 H   0  0  0  0  0  0  0  0  0  0  0  0
   -1.6465   -3.2536   -0.0138 H   0  0  0  0  0  0  0  0  0  0  0  0
   -3.8062   -2.5537    0.2581 H   0  0  0  0  0  0  0  0  0  0  0  0
   -4.1432    1.3978    0.6180 H   0  0  0  0  0  0  0  0  0  0  0  0
   -4.7601    1.3882   -1.0488 H   0  0  0  0  0  0  0  0  0  0  0  0
   -2.6681    0.2403   -1.8153 H   0  0  0  0  0  0  0  0  0  0  0  0
   -2.3991    1.8831   -1.1645 H   0  0  0  0  0  0  0  0  0  0  0  0
   -0.7568    1.1354    1.8232 H   0  0  0  0  0  0  0  0  0  0  0  0
   -2.3849    0.3129    2.1107 H   0  0  0  0  0  0  0  0  0  0  0  0
   -2.2703    1.9279    1.3370 H   0  0  0  0  0  0  0  0  0  0  0  0
    2.4827   -1.0188    1.1305 H   0  0  0  0  0  0  0  0  0  0  0  0
    2.6105   -2.4029   -0.7222 H   0  0  0  0  0  0  0  0  0  0  0  0
    1.7626   -1.1778   -1.8189 H   0  0  0  0  0  0  0  0  0  0  0  0
    4.4872   -0.9448   -0.5336 H   0  0  0  0  0  0  0  0  0  0  0  0
    4.0836   -0.8584   -2.3287 H   0  0  0  0  0  0  0  0  0  0  0  0
  2  1  1  1
  2  3  1  0
  3  4  1  0
  4  5  1  0
  5  6  1  0
  6  7  1  0
  7  8  1  0
  8  9  1  0
  9 10  2  0
 10 11  1  0
 11 12  2  0
 11 13  1  0
 13 14  1  0
 14 15  1  0
 15 16  1  1
  6 17  1  0
 17 18  1  0
 18 19  1  0
 19 20  1  0
 20 21  2  0
 17  2  1  0
 20  2  1  0
 15  5  1  0
 15  9  1  0
  1 22  1  0
  1 23  1  0
  1 24  1  0
  3 25  1  0
  3 26  1  0
  4 27  1  0
  4 28  1  0
  5 29  1  0
  6 30  1  0
  7 31  1  0
  7 32  1  0
  8 33  1  0
  8 34  1  0
 10 35  1  0
 13 36  1  0
 13 37  1  0
 14 38  1  0
 14 39  1  0
 16 40  1  0
 16 41  1  0
 16 42  1  0
 17 43  1  0
 18 44  1  0
 18 45  1  0
 19 46  1  0
 19 47  1  0
M  END
$$$$
[H]OC(=O)C([H])([H])[C@@]([H])(C(=O)N1C([H])([H])C([H])([H])C([H])([H])[C@@]1([H])C(=O)N([H])[C@]([H])(C(=O)O[H])C([H])(C([H])([H])[H])C([H])([H])[H])N([H])C(=O)[C@@]([H])(N([H])C(=O)[C@@]([H])(N([H])C(=O)c1c(O[H])c2c([H])c([H])c([H])c([H])c2n1[H])C([H])([H])c1c([H])c([H])c([H])c([H])c1[H])C([H])([H])C([H])(C([H])([H])[H])C([H])([H])[H]
     RDKit          3D

102105  0  0  0  0  0  0  0  0999 V2000
    0.4048   -5.6108    0.3225 C   0  0  0  0  0  0  0  0  0  0  0  0
   -0.1590   -4.1961    0.1314 C   0  0  0  0  0  0  0  0  0  0  0  0
    0.6658   -3.4889   -0.8690 C   0  0  0  0  0  0  0  0  0  0  0  0
   -0.3322   -3.6074    1.4800 C   0  0  0  0  0  0  0  0  0  0  0  0
   -0.8389   -2.2566    1.6185 C   0  0  2  0  0  0  0  0  0  0  0  0
   -2.1420   -2.0770    0.9434 N   0  0  0  0  0  0  0  0  0  0  0  0
   -3.0734   -1.1622    1.4991 C   0  0  0  0  0  0  0  0  0  0  0  0
   -2.8579   -0.5059    2.5118 O   0  0  0  0  0  0  0  0  0  0  0  0
   -4.4064   -0.9832    0.7812 C   0  0  2  0  0  0  0  0  0  0  0  0
   -4.3665   -1.8324   -0.4387 C   0  0  0  0  0  0  0  0  0  0  0  0
   -5.5650   -1.7894   -1.2930 C   0  0  0  0  0  0  0  0  0  0  0  0
   -5.6123   -0.8810   -2.3031 C   0  0  0  0  0  0  0  0  0  0  0  0
   -6.7213   -0.8187   -3.1701 C   0  0  0  0  0  0  0  0  0  0  0  0
   -7.7797   -1.6953   -2.9915 C   0  0  0  0  0  0  0  0  0  0  0  0
   -7.6942   -2.6166   -1.9405 C   0  0  0  0  0  0  0  0  0  0  0  0
   -6.5936   -2.6667   -1.0910 C   0  0  0  0  0  0  0  0  0  0  0  0
   -4.7902    0.2750    0.5873 N   0  0  0  0  0  0  0  0  0  0  0  0
   -4.9749    1.6748    0.3494 C   0  0  0  0  0  0  0  0  0  0  0  0
   -4.0608    2.4516    0.0804 O   0  0  0  0  0  0  0  0  0  0  0  0
   -6.3244    2.2453    0.4257 C   0  0  0  0  0  0  0  0  0  0  0  0
   -6.6047    3.5343    0.1607 N   0  0  0  0  0  0  0  0  0  0  0  0
   -7.8979    3.8042    0.2970 C   0  0  0  0  0  0  0  0  0  0  0  0
   -8.6728    4.9677    0.1653 C   0  0  0  0  0  0  0  0  0  0  0  0
  -10.0365    4.8751    0.4196 C   0  0  0  0  0  0  0  0  0  0  0  0
  -10.6784    3.7502    0.7857 C   0  0  0  0  0  0  0  0  0  0  0  0
   -9.8902    2.5596    0.9188 C   0  0  0  0  0  0  0  0  0  0  0  0
   -8.5395    2.6569    0.6665 C   0  0  0  0  0  0  0  0  0  0  0  0
   -7.5217    1.6583    0.7463 C   0  0  0  0  0  0  0  0  0  0  0  0
   -7.8232    0.3891    1.0948 O   0  0  0  0  0  0  0  0  0  0  0  0
   -0.0137   -1.0709    1.5009 C   0  0  0  0  0  0  0  0  0  0  0  0
   -0.4529   -0.0393    0.8140 O   0  0  0  0  0  0  0  0  0  0  0  0
    1.2314   -0.8959    2.0633 N   0  0  0  0  0  0  0  0  0  0  0  0
    2.0167    0.3393    1.9699 C   0  0  1  0  0  0  0  0  0  0  0  0
    2.7422    0.6075    3.2435 C   0  0  0  0  0  0  0  0  0  0  0  0
    3.6873   -0.4341    3.6360 C   0  0  0  0  0  0  0  0  0  0  0  0
    5.0710   -0.1767    3.4652 O   0  0  0  0  0  0  0  0  0  0  0  0
    3.4193   -1.5432    4.1164 O   0  0  0  0  0  0  0  0  0  0  0  0
    2.8781    0.2926    0.8046 C   0  0  0  0  0  0  0  0  0  0  0  0
    2.9435   -0.7985    0.1205 O   0  0  0  0  0  0  0  0  0  0  0  0
    3.6429    1.4156    0.3955 N   0  0  0  0  0  0  0  0  0  0  0  0
    3.7033    2.7025    1.0434 C   0  0  0  0  0  0  0  0  0  0  0  0
    3.8866    3.6772   -0.1117 C   0  0  0  0  0  0  0  0  0  0  0  0
    4.5765    2.8741   -1.1685 C   0  0  0  0  0  0  0  0  0  0  0  0
    4.4640    1.4424   -0.7996 C   0  0  1  0  0  0  0  0  0  0  0  0
    5.7223    0.7060   -0.6588 C   0  0  0  0  0  0  0  0  0  0  0  0
    5.7216   -0.2923    0.1462 O   0  0  0  0  0  0  0  0  0  0  0  0
    6.9065    1.0473   -1.3610 N   0  0  0  0  0  0  0  0  0  0  0  0
    8.0979    0.2033   -1.1876 C   0  0  1  0  0  0  0  0  0  0  0  0
    8.9879    0.3135   -2.3756 C   0  0  0  0  0  0  0  0  0  0  0  0
    9.4850    1.7532   -2.5616 C   0  0  0  0  0  0  0  0  0  0  0  0
   10.1597   -0.6184   -2.3410 C   0  0  0  0  0  0  0  0  0  0  0  0
    8.7812    0.5721    0.0941 C   0  0  0  0  0  0  0  0  0  0  0  0
    9.9512   -0.1893    0.3921 O   0  0  0  0  0  0  0  0  0  0  0  0
    8.4321    1.4355    0.8708 O   0  0  0  0  0  0  0  0  0  0  0  0
    1.0112   -5.5724    1.2636 H   0  0  0  0  0  0  0  0  0  0  0  0
   -0.4681   -6.2889    0.5322 H   0  0  0  0  0  0  0  0  0  0  0  0
    0.9973   -5.9289   -0.5461 H   0  0  0  0  0  0  0  0  0  0  0  0
   -1.1696   -4.3631   -0.3457 H   0  0  0  0  0  0  0  0  0  0  0  0
    1.6982   -3.8924   -0.8031 H   0  0  0  0  0  0  0  0  0  0  0  0
    0.7289   -2.3913   -0.6846 H   0  0  0  0  0  0  0  0  0  0  0  0
    0.3573   -3.6957   -1.9253 H   0  0  0  0  0  0  0  0  0  0  0  0
    0.6463   -3.7477    2.0167 H   0  0  0  0  0  0  0  0  0  0  0  0
   -1.0239   -4.3103    2.0325 H   0  0  0  0  0  0  0  0  0  0  0  0
   -1.1938   -2.1777    2.7408 H   0  0  0  0  0  0  0  0  0  0  0  0
   -2.3036   -2.5974    0.1073 H   0  0  0  0  0  0  0  0  0  0  0  0
   -5.0755   -1.5516    1.5554 H   0  0  0  0  0  0  0  0  0  0  0  0
   -3.4977   -1.5242   -1.0603 H   0  0  0  0  0  0  0  0  0  0  0  0
   -4.1837   -2.9060   -0.1215 H   0  0  0  0  0  0  0  0  0  0  0  0
   -4.7996   -0.1995   -2.4356 H   0  0  0  0  0  0  0  0  0  0  0  0
   -6.7985   -0.1260   -3.9850 H   0  0  0  0  0  0  0  0  0  0  0  0
   -8.6599   -1.7052   -3.6171 H   0  0  0  0  0  0  0  0  0  0  0  0
   -8.5129   -3.2837   -1.8140 H   0  0  0  0  0  0  0  0  0  0  0  0
   -6.4977   -3.3423   -0.2647 H   0  0  0  0  0  0  0  0  0  0  0  0
   -3.4922    0.5366    0.0623 H   0  0  0  0  0  0  0  0  0  0  0  0
   -5.8786    4.2566   -0.1459 H   0  0  0  0  0  0  0  0  0  0  0  0
   -8.1658    5.8412   -0.1114 H   0  0  0  0  0  0  0  0  0  0  0  0
  -10.6385    5.8094    0.3141 H   0  0  0  0  0  0  0  0  0  0  0  0
  -11.7277    3.6575    0.9830 H   0  0  0  0  0  0  0  0  0  0  0  0
  -10.3834    1.6800    1.2075 H   0  0  0  0  0  0  0  0  0  0  0  0
   -7.2992   -0.4119    1.2102 H   0  0  0  0  0  0  0  0  0  0  0  0
    1.6507   -1.6799    2.6002 H   0  0  0  0  0  0  0  0  0  0  0  0
    1.2059    1.1348    1.8086 H   0  0  0  0  0  0  0  0  0  0  0  0
    1.9072    0.5428    4.0483 H   0  0  0  0  0  0  0  0  0  0  0  0
    3.1871    1.6319    3.3412 H   0  0  0  0  0  0  0  0  0  0  0  0
    5.7109   -0.4430    4.2197 H   0  0  0  0  0  0  0  0  0  0  0  0
    2.7979    3.0173    1.5539 H   0  0  0  0  0  0  0  0  0  0  0  0
    4.5346    2.7903    1.7643 H   0  0  0  0  0  0  0  0  0  0  0  0
    4.5360    4.4945    0.2204 H   0  0  0  0  0  0  0  0  0  0  0  0
    2.8779    4.0468   -0.4434 H   0  0  0  0  0  0  0  0  0  0  0  0
    4.1018    3.0381   -2.1796 H   0  0  0  0  0  0  0  0  0  0  0  0
    5.6294    3.2540   -1.2931 H   0  0  0  0  0  0  0  0  0  0  0  0
    3.8795    0.8776   -1.6262 H   0  0  0  0  0  0  0  0  0  0  0  0
    6.9379    1.8700   -1.9793 H   0  0  0  0  0  0  0  0  0  0  0  0
    7.7125   -0.8330   -1.0648 H   0  0  0  0  0  0  0  0  0  0  0  0
    8.3934    0.0930   -3.3193 H   0  0  0  0  0  0  0  0  0  0  0  0
   10.5764    1.7205   -2.7583 H   0  0  0  0  0  0  0  0  0  0  0  0
    9.3439    2.3091   -1.6023 H   0  0  0  0  0  0  0  0  0  0  0  0
    8.9899    2.2363   -3.4058 H   0  0  0  0  0  0  0  0  0  0  0  0
   11.0188   -0.1902   -1.7912 H   0  0  0  0  0  0  0  0  0  0  0  0
   10.4620   -0.8585   -3.4109 H   0  0  0  0  0  0  0  0  0  0  0  0
    9.9070   -1.5953   -1.8722 H   0  0  0  0  0  0  0  0  0  0  0  0
    9.8163   -1.2000    0.4934 H   0  0  0  0  0  0  0  0  0  0  0  0
  1  2  1  0
  2  3  1  0
  2  4  1  0
  4  5  1  0
  5  6  1  0
  6  7  1  0
  7  8  2  0
  7  9  1  0
  9 10  1  0
 10 11  1  0
 11 12  2  0
 12 13  1  0
 13 14  2  0
 14 15  1  0
 15 16  2  0
  9 17  1  0
 17 18  1  0
 18 19  2  0
 18 20  1  0
 20 21  1  0
 21 22  1  0
 22 23  2  0
 23 24  1  0
 24 25  2  0
 25 26  1  0
 26 27  2  0
 27 28  1  0
 28 29  1  0
  5 30  1  0
 30 31  2  0
 30 32  1  0
 32 33  1  0
 33 34  1  0
 34 35  1  0
 35 36  1  0
 35 37  2  0
 33 38  1  0
 38 39  2  0
 38 40  1  0
 40 41  1  0
 41 42  1  0
 42 43  1  0
 43 44  1  0
 44 45  1  0
 45 46  2  0
 45 47  1  0
 47 48  1  0
 48 49  1  0
 49 50  1  0
 49 51  1  0
 48 52  1  0
 52 53  1  0
 52 54  2  0
 16 11  1  0
 28 20  2  0
 44 40  1  0
 27 22  1  0
  1 55  1  0
  1 56  1  0
  1 57  1  0
  2 58  1  0
  3 59  1  0
  3 60  1  0
  3 61  1  0
  4 62  1  0
  4 63  1  0
  5 64  1  1
  6 65  1  0
  9 66  1  1
 10 67  1  0
 10 68  1  0
 12 69  1  0
 13 70  1  0
 14 71  1  0
 15 72  1  0
 16 73  1  0
 17 74  1  0
 21 75  1  0
 23 76  1  0
 24 77  1  0
 25 78  1  0
 26 79  1  0
 29 80  1  0
 32 81  1  0
 33 82  1  6
 34 83  1  0
 34 84  1  0
 36 85  1  0
 41 86  1  0
 41 87  1  0
 42 88  1  0
 42 89  1  0
 43 90  1  0
 43 91  1  0
 44 92  1  6
 47 93  1  0
 48 94  1  1
 49 95  1  0
 50 96  1  0
 50 97  1  0
 50 98  1  0
 51 99  1  0
 51100  1  0
 51101  1  0
 53102  1  0
M  END
$$$$
[H]OC(=O)C([H])([H])[C@@]([H])(C(=O)N([H])[H])N([H])C(=O)[C@@]([H])(N([H])C(=O)[C@@]([H])(N([H])C(=O)[C@@]1([H])N(C(=O)[C@@]([H])(N([H])[H])C([H])([H])c2c([H])c([H])c(O[H])c([H])c2[H])C([H])([H])C([H])([H])C1([H])[H])C([H])([H])c1c([H])c([H])c(O[H])c([H])c1[H])[C@@]([H])(C([H])([H])[H])C([H])([H])C([H])([H])[H]
     RDKit          3D

 92 94  0  0  0  0  0  0  0  0999 V2000
   -2.6833    4.9615   -2.2345 C   0  0  0  0  0  0  0  0  0  0  0  0
   -2.8720    3.4464   -2.0167 C   0  0  0  0  0  0  0  0  0  0  0  0
   -2.9909    3.2757   -0.5507 C   0  0  2  0  0  0  0  0  0  0  0  0
   -1.7138    3.7810    0.0877 C   0  0  0  0  0  0  0  0  0  0  0  0
   -3.3194    1.9371   -0.0111 C   0  0  2  0  0  0  0  0  0  0  0  0
   -2.4326    0.8801   -0.3134 N   0  0  0  0  0  0  0  0  0  0  0  0
   -1.5503    0.1712    0.4965 C   0  0  0  0  0  0  0  0  0  0  0  0
   -1.4657    0.4535    1.6999 O   0  0  0  0  0  0  0  0  0  0  0  0
   -0.7004   -0.9128   -0.0222 C   0  0  2  0  0  0  0  0  0  0  0  0
   -1.5188   -2.0666   -0.5761 C   0  0  0  0  0  0  0  0  0  0  0  0
   -0.6464   -3.1441   -1.0900 C   0  0  0  0  0  0  0  0  0  0  0  0
   -0.2388   -4.1325   -0.2299 C   0  0  0  0  0  0  0  0  0  0  0  0
    0.5807   -5.1801   -0.6438 C   0  0  0  0  0  0  0  0  0  0  0  0
    0.9675   -5.1812   -1.9636 C   0  0  0  0  0  0  0  0  0  0  0  0
    1.7851   -6.2008   -2.4361 O   0  0  0  0  0  0  0  0  0  0  0  0
    0.5528   -4.1729   -2.8439 C   0  0  0  0  0  0  0  0  0  0  0  0
   -0.2606   -3.1478   -2.4010 C   0  0  0  0  0  0  0  0  0  0  0  0
    0.1880   -1.4762    0.9793 N   0  0  0  0  0  0  0  0  0  0  0  0
    1.6010   -1.3607    0.8893 C   0  0  0  0  0  0  0  0  0  0  0  0
    2.1626   -0.7612   -0.0520 O   0  0  0  0  0  0  0  0  0  0  0  0
    2.4273   -1.9807    1.9561 C   0  0  2  0  0  0  0  0  0  0  0  0
    2.3955   -1.1166    3.1902 C   0  0  0  0  0  0  0  0  0  0  0  0
    3.8602   -0.6867    3.3484 C   0  0  0  0  0  0  0  0  0  0  0  0
    4.5911   -1.9099    2.8256 C   0  0  0  0  0  0  0  0  0  0  0  0
    3.8047   -2.1922    1.6423 N   0  0  0  0  0  0  0  0  0  0  0  0
    4.3225   -2.6885    0.3985 C   0  0  0  0  0  0  0  0  0  0  0  0
    3.5686   -3.0350   -0.5427 O   0  0  0  0  0  0  0  0  0  0  0  0
    5.7695   -2.8293    0.1521 C   0  0  1  0  0  0  0  0  0  0  0  0
    5.9779   -4.0497   -0.6911 N   0  0  0  0  0  0  0  0  0  0  0  0
    6.4471   -1.6971   -0.5339 C   0  0  0  0  0  0  0  0  0  0  0  0
    6.4471   -0.3788    0.0923 C   0  0  0  0  0  0  0  0  0  0  0  0
    7.4763   -0.0049    0.9784 C   0  0  0  0  0  0  0  0  0  0  0  0
    7.5380    1.2256    1.5757 C   0  0  0  0  0  0  0  0  0  0  0  0
    6.5678    2.1563    1.3187 C   0  0  0  0  0  0  0  0  0  0  0  0
    6.5906    3.4132    1.9005 O   0  0  0  0  0  0  0  0  0  0  0  0
    5.5281    1.8287    0.4465 C   0  0  0  0  0  0  0  0  0  0  0  0
    5.4969    0.5871   -0.1353 C   0  0  0  0  0  0  0  0  0  0  0  0
   -4.6952    1.5815   -0.3881 C   0  0  0  0  0  0  0  0  0  0  0  0
   -4.9163    0.4277   -0.8637 O   0  0  0  0  0  0  0  0  0  0  0  0
   -5.8220    2.4352   -0.2666 N   0  0  0  0  0  0  0  0  0  0  0  0
   -7.1584    2.0667   -0.6439 C   0  0  1  0  0  0  0  0  0  0  0  0
   -8.1694    2.4861    0.3792 C   0  0  0  0  0  0  0  0  0  0  0  0
   -7.9893    1.9170    1.7204 C   0  0  0  0  0  0  0  0  0  0  0  0
   -7.0241    1.0134    2.1016 O   0  0  0  0  0  0  0  0  0  0  0  0
   -8.8149    2.3082    2.6049 O   0  0  0  0  0  0  0  0  0  0  0  0
   -7.5551    2.7664   -1.9179 C   0  0  0  0  0  0  0  0  0  0  0  0
   -8.8012    2.6023   -2.5515 N   0  0  0  0  0  0  0  0  0  0  0  0
   -6.7118    3.5465   -2.4452 O   0  0  0  0  0  0  0  0  0  0  0  0
   -1.6201    5.2544   -2.0951 H   0  0  0  0  0  0  0  0  0  0  0  0
   -3.2803    5.5452   -1.5074 H   0  0  0  0  0  0  0  0  0  0  0  0
   -2.9605    5.2758   -3.2424 H   0  0  0  0  0  0  0  0  0  0  0  0
   -1.9237    3.0080   -2.4353 H   0  0  0  0  0  0  0  0  0  0  0  0
   -3.7610    3.1885   -2.6103 H   0  0  0  0  0  0  0  0  0  0  0  0
   -3.7828    4.0124   -0.2199 H   0  0  0  0  0  0  0  0  0  0  0  0
   -1.5567    4.8669   -0.0343 H   0  0  0  0  0  0  0  0  0  0  0  0
   -1.7266    3.5769    1.1875 H   0  0  0  0  0  0  0  0  0  0  0  0
   -0.8017    3.2362   -0.2962 H   0  0  0  0  0  0  0  0  0  0  0  0
   -3.3218    2.0298    1.1208 H   0  0  0  0  0  0  0  0  0  0  0  0
   -2.4461    0.5782   -1.3424 H   0  0  0  0  0  0  0  0  0  0  0  0
   -0.0715   -0.4424   -0.8201 H   0  0  0  0  0  0  0  0  0  0  0  0
   -2.2820   -1.7262   -1.3206 H   0  0  0  0  0  0  0  0  0  0  0  0
   -2.1120   -2.5038    0.2575 H   0  0  0  0  0  0  0  0  0  0  0  0
   -0.5136   -4.1859    0.8280 H   0  0  0  0  0  0  0  0  0  0  0  0
    0.9126   -5.9693    0.0118 H   0  0  0  0  0  0  0  0  0  0  0  0
    2.7866   -6.0721   -2.3871 H   0  0  0  0  0  0  0  0  0  0  0  0
    0.8602   -4.1728   -3.8999 H   0  0  0  0  0  0  0  0  0  0  0  0
   -0.5671   -2.3739   -3.1153 H   0  0  0  0  0  0  0  0  0  0  0  0
   -0.2291   -1.9760    1.7764 H   0  0  0  0  0  0  0  0  0  0  0  0
    1.9783   -2.9611    2.2780 H   0  0  0  0  0  0  0  0  0  0  0  0
    2.0249   -1.6451    4.0899 H   0  0  0  0  0  0  0  0  0  0  0  0
    1.8226   -0.1974    2.9792 H   0  0  0  0  0  0  0  0  0  0  0  0
    4.0545   -0.5424    4.4279 H   0  0  0  0  0  0  0  0  0  0  0  0
    4.0886    0.2163    2.7789 H   0  0  0  0  0  0  0  0  0  0  0  0
    5.6456   -1.7827    2.6995 H   0  0  0  0  0  0  0  0  0  0  0  0
    4.3600   -2.7484    3.5698 H   0  0  0  0  0  0  0  0  0  0  0  0
    6.2712   -3.0524    1.1027 H   0  0  0  0  0  0  0  0  0  0  0  0
    6.9230   -4.4402   -0.5180 H   0  0  0  0  0  0  0  0  0  0  0  0
    5.2335   -4.7357   -0.4642 H   0  0  0  0  0  0  0  0  0  0  0  0
    7.5332   -2.0104   -0.6516 H   0  0  0  0  0  0  0  0  0  0  0  0
    6.0845   -1.5611   -1.5895 H   0  0  0  0  0  0  0  0  0  0  0  0
    8.2584   -0.7369    1.1933 H   0  0  0  0  0  0  0  0  0  0  0  0
    8.3513    1.4883    2.2598 H   0  0  0  0  0  0  0  0  0  0  0  0
    5.8476    4.0875    1.6866 H   0  0  0  0  0  0  0  0  0  0  0  0
    4.7762    2.6040    0.2715 H   0  0  0  0  0  0  0  0  0  0  0  0
    4.6823    0.3706   -0.8088 H   0  0  0  0  0  0  0  0  0  0  0  0
   -5.6669    3.3931    0.1233 H   0  0  0  0  0  0  0  0  0  0  0  0
   -7.2705    0.9801   -0.8387 H   0  0  0  0  0  0  0  0  0  0  0  0
   -9.1596    2.0759    0.0096 H   0  0  0  0  0  0  0  0  0  0  0  0
   -8.3364    3.5885    0.3891 H   0  0  0  0  0  0  0  0  0  0  0  0
   -7.1957    0.4109    2.9036 H   0  0  0  0  0  0  0  0  0  0  0  0
   -8.8514    2.7083   -3.5880 H   0  0  0  0  0  0  0  0  0  0  0  0
   -9.6541    2.3785   -1.9857 H   0  0  0  0  0  0  0  0  0  0  0  0
  1  2  1  0
  2  3  1  0
  3  4  1  0
  3  5  1  0
  5  6  1  0
  6  7  1  0
  7  8  2  0
  7  9  1  0
  9 10  1  0
 10 11  1  0
 11 12  2  0
 12 13  1  0
 13 14  2  0
 14 15  1  0
 14 16  1  0
 16 17  2  0
  9 18  1  0
 18 19  1  0
 19 20  2  0
 19 21  1  0
 21 22  1  0
 22 23  1  0
 23 24  1  0
 24 25  1  0
 25 26  1  0
 26 27  2  0
 26 28  1  0
 28 29  1  0
 28 30  1  0
 30 31  1  0
 31 32  2  0
 32 33  1  0
 33 34  2  0
 34 35  1  0
 34 36  1  0
 36 37  2  0
  5 38  1  0
 38 39  2  0
 38 40  1  0
 40 41  1  0
 41 42  1  0
 42 43  1  0
 43 44  1  0
 43 45  2  0
 41 46  1  0
 46 47  1  0
 46 48  2  0
 17 11  1  0
 25 21  1  0
 37 31  1  0
  1 49  1  0
  1 50  1  0
  1 51  1  0
  2 52  1  0
  2 53  1  0
  3 54  1  1
  4 55  1  0
  4 56  1  0
  4 57  1  0
  5 58  1  1
  6 59  1  0
  9 60  1  6
 10 61  1  0
 10 62  1  0
 12 63  1  0
 13 64  1  0
 15 65  1  0
 16 66  1  0
 17 67  1  0
 18 68  1  0
 21 69  1  1
 22 70  1  0
 22 71  1  0
 23 72  1  0
 23 73  1  0
 24 74  1  0
 24 75  1  0
 28 76  1  1
 29 77  1  0
 29 78  1  0
 30 79  1  0
 30 80  1  0
 32 81  1  0
 33 82  1  0
 35 83  1  0
 36 84  1  0
 37 85  1  0
 40 86  1  0
 41 87  1  6
 42 88  1  0
 42 89  1  0
 44 90  1  0
 47 91  1  0
 47 92  1  0
M  END
$$$$
[H]N=C(N([H])[H])N([H])C([H])([H])C([H])([H])C([H])([H])[C@@]1([H])C(=O)N([H])[C@@]([H])(C([H])([H])c2c([H])c([H])c(O[H])c([H])c2[H])C(=O)N2C([H])([H])C([H])([H])C([H])([H])[C@@]2([H])C(=O)N2C([H])([H])C([H])([H])C([H])([H])[C@@]2([H])C(=O)N1[H]
     RDKit          3D

 72 75  0  0  0  0  0  0  0  0999 V2000
    6.9676    2.4371   -0.3067 N   0  0  0  0  0  0  0  0  0  0  0  0
    5.7401    2.7733    0.3158 C   0  0  0  0  0  0  0  0  0  0  0  0
    5.6356    2.6527    1.5916 N   0  0  0  0  0  0  0  0  0  0  0  0
    4.6547    3.2327   -0.4585 N   0  0  0  0  0  0  0  0  0  0  0  0
    3.3972    2.4845   -0.5521 C   0  0  0  0  0  0  0  0  0  0  0  0
    3.5864    1.2182   -1.2974 C   0  0  0  0  0  0  0  0  0  0  0  0
    2.4652    0.3194   -1.4946 C   0  0  0  0  0  0  0  0  0  0  0  0
    1.8292   -0.4661   -0.3824 C   0  0  2  0  0  0  0  0  0  0  0  0
    0.7419   -1.1789   -1.0455 N   0  0  0  0  0  0  0  0  0  0  0  0
    0.4097   -2.5236   -1.0993 C   0  0  0  0  0  0  0  0  0  0  0  0
    0.5632   -3.2142   -2.1874 O   0  0  0  0  0  0  0  0  0  0  0  0
   -0.1580   -3.3611    0.0234 C   0  0  2  0  0  0  0  0  0  0  0  0
    0.4690   -4.7355   -0.0731 C   0  0  0  0  0  0  0  0  0  0  0  0
   -0.3677   -5.4312   -1.0791 C   0  0  0  0  0  0  0  0  0  0  0  0
   -1.5855   -4.6355   -1.3385 C   0  0  0  0  0  0  0  0  0  0  0  0
   -1.5613   -3.5296   -0.3599 N   0  0  0  0  0  0  0  0  0  0  0  0
   -2.5701   -2.7007    0.1682 C   0  0  0  0  0  0  0  0  0  0  0  0
   -3.3557   -2.1894   -0.7285 O   0  0  0  0  0  0  0  0  0  0  0  0
   -2.8658   -2.3421    1.5105 C   0  0  2  0  0  0  0  0  0  0  0  0
   -4.3502   -1.9023    1.6824 C   0  0  0  0  0  0  0  0  0  0  0  0
   -4.3699   -1.2080    3.0286 C   0  0  0  0  0  0  0  0  0  0  0  0
   -2.9949   -1.5676    3.5365 C   0  0  0  0  0  0  0  0  0  0  0  0
   -2.2232   -1.3117    2.2555 N   0  0  0  0  0  0  0  0  0  0  0  0
   -1.2400   -0.3787    2.0265 C   0  0  0  0  0  0  0  0  0  0  0  0
   -0.1317   -0.6007    2.6959 O   0  0  0  0  0  0  0  0  0  0  0  0
   -1.0809    0.8385    1.2192 C   0  0  2  0  0  0  0  0  0  0  0  0
   -2.0586    1.0778    0.1244 C   0  0  0  0  0  0  0  0  0  0  0  0
   -1.8428    2.3416   -0.6132 C   0  0  0  0  0  0  0  0  0  0  0  0
   -2.4400    3.5145   -0.1256 C   0  0  0  0  0  0  0  0  0  0  0  0
   -2.3022    4.7243   -0.7528 C   0  0  0  0  0  0  0  0  0  0  0  0
   -1.5473    4.8179   -1.9179 C   0  0  0  0  0  0  0  0  0  0  0  0
   -1.4425    6.0639   -2.5075 O   0  0  0  0  0  0  0  0  0  0  0  0
   -0.9565    3.6970   -2.4141 C   0  0  0  0  0  0  0  0  0  0  0  0
   -1.1152    2.4918   -1.7569 C   0  0  0  0  0  0  0  0  0  0  0  0
    0.2870    1.1859    0.9173 N   0  0  0  0  0  0  0  0  0  0  0  0
    1.4225    0.3859    0.7291 C   0  0  0  0  0  0  0  0  0  0  0  0
    2.3310    0.3444    1.6866 O   0  0  0  0  0  0  0  0  0  0  0  0
    7.8755    2.6501    0.1701 H   0  0  0  0  0  0  0  0  0  0  0  0
    6.9686    1.9753   -1.2435 H   0  0  0  0  0  0  0  0  0  0  0  0
    6.4191    2.3190    2.1688 H   0  0  0  0  0  0  0  0  0  0  0  0
    4.7254    4.1221   -0.9860 H   0  0  0  0  0  0  0  0  0  0  0  0
    2.9637    2.5135    0.4166 H   0  0  0  0  0  0  0  0  0  0  0  0
    2.7069    3.1333   -1.1993 H   0  0  0  0  0  0  0  0  0  0  0  0
    3.9217    1.5466   -2.3482 H   0  0  0  0  0  0  0  0  0  0  0  0
    4.5315    0.6765   -0.9536 H   0  0  0  0  0  0  0  0  0  0  0  0
    2.6567   -0.4108   -2.3763 H   0  0  0  0  0  0  0  0  0  0  0  0
    1.6332    0.9542   -1.9901 H   0  0  0  0  0  0  0  0  0  0  0  0
    2.5986   -1.2382   -0.0212 H   0  0  0  0  0  0  0  0  0  0  0  0
    0.1123   -0.5073   -1.6043 H   0  0  0  0  0  0  0  0  0  0  0  0
   -0.0039   -2.9345    1.0048 H   0  0  0  0  0  0  0  0  0  0  0  0
    1.5153   -4.6574   -0.4783 H   0  0  0  0  0  0  0  0  0  0  0  0
    0.5301   -5.2394    0.9167 H   0  0  0  0  0  0  0  0  0  0  0  0
    0.1724   -5.6406   -2.0448 H   0  0  0  0  0  0  0  0  0  0  0  0
   -0.5924   -6.4630   -0.6755 H   0  0  0  0  0  0  0  0  0  0  0  0
   -1.6668   -4.2298   -2.3677 H   0  0  0  0  0  0  0  0  0  0  0  0
   -2.4554   -5.3052   -1.2231 H   0  0  0  0  0  0  0  0  0  0  0  0
   -2.8738   -3.2966    2.1682 H   0  0  0  0  0  0  0  0  0  0  0  0
   -4.5382   -1.1900    0.8517 H   0  0  0  0  0  0  0  0  0  0  0  0
   -5.0116   -2.7687    1.6875 H   0  0  0  0  0  0  0  0  0  0  0  0
   -4.4349   -0.0962    2.8477 H   0  0  0  0  0  0  0  0  0  0  0  0
   -5.1798   -1.5683    3.6855 H   0  0  0  0  0  0  0  0  0  0  0  0
   -2.9682   -2.6614    3.7354 H   0  0  0  0  0  0  0  0  0  0  0  0
   -2.6355   -1.0647    4.3936 H   0  0  0  0  0  0  0  0  0  0  0  0
   -1.3945    1.6700    1.9793 H   0  0  0  0  0  0  0  0  0  0  0  0
   -3.0993    1.1213    0.5010 H   0  0  0  0  0  0  0  0  0  0  0  0
   -1.9220    0.2699   -0.6395 H   0  0  0  0  0  0  0  0  0  0  0  0
   -3.0244    3.4310    0.7803 H   0  0  0  0  0  0  0  0  0  0  0  0
   -2.7908    5.5831   -0.3178 H   0  0  0  0  0  0  0  0  0  0  0  0
   -2.1336    6.3301   -3.1982 H   0  0  0  0  0  0  0  0  0  0  0  0
   -0.3638    3.7701   -3.3258 H   0  0  0  0  0  0  0  0  0  0  0  0
   -0.6425    1.6333   -2.1787 H   0  0  0  0  0  0  0  0  0  0  0  0
    0.4600    2.2482    0.8440 H   0  0  0  0  0  0  0  0  0  0  0  0
  1  2  1  0
  2  3  2  3
  2  4  1  0
  4  5  1  0
  5  6  1  0
  6  7  1  0
  7  8  1  0
  8  9  1  0
  9 10  1  0
 10 11  2  0
 10 12  1  0
 12 13  1  0
 13 14  1  0
 14 15  1  0
 15 16  1  0
 16 17  1  0
 17 18  2  0
 17 19  1  0
 19 20  1  0
 20 21  1  0
 21 22  1  0
 22 23  1  0
 23 24  1  0
 24 25  2  0
 24 26  1  0
 26 27  1  0
 27 28  1  0
 28 29  2  0
 29 30  1  0
 30 31  2  0
 31 32  1  0
 31 33  1  0
 33 34  2  0
 26 35  1  0
 35 36  1  0
 36 37  2  0
 36  8  1  0
 16 12  1  0
 23 19  1  0
 34 28  1  0
  1 38  1  0
  1 39  1  0
  3 40  1  0
  4 41  1  0
  5 42  1  0
  5 43  1  0
  6 44  1  0
  6 45  1  0
  7 46  1  0
  7 47  1  0
  8 48  1  1
  9 49  1  0
 12 50  1  1
 13 51  1  0
 13 52  1  0
 14 53  1  0
 14 54  1  0
 15 55  1  0
 15 56  1  0
 19 57  1  1
 20 58  1  0
 20 59  1  0
 21 60  1  0
 21 61  1  0
 22 62  1  0
 22 63  1  0
 26 64  1  1
 27 65  1  0
 27 66  1  0
 29 67  1  0
 30 68  1  0
 32 69  1  0
 33 70  1  0
 34 71  1  0
 35 72  1  0
M  END
$$$$
[H]c1nc(N([H])c2c([H])c([H])c(OC([H])([H])c3nc([H])c([H])c([H])c3[H])c(Cl)c2[H])c2c(O[C@]([H])(C(=O)N(C([H])([H])[H])C([H])([H])[H])C([H])([H])[H])c([H])c([H])c([H])c2n1
     RDKit          3D

 58 61  0  0  0  0  0  0  0  0999 V2000
   -3.5300   -1.0694    2.3661 C   0  0  0  0  0  0  0  0  0  0  0  0
   -3.9787   -0.6354    0.9708 C   0  0  2  0  0  0  0  0  0  0  0  0
   -3.0842   -1.0345   -0.0041 O   0  0  0  0  0  0  0  0  0  0  0  0
   -3.3130   -1.8332   -1.0779 C   0  0  0  0  0  0  0  0  0  0  0  0
   -4.5945   -2.3469   -1.3214 C   0  0  0  0  0  0  0  0  0  0  0  0
   -4.8110   -3.1581   -2.4093 C   0  0  0  0  0  0  0  0  0  0  0  0
   -3.8025   -3.4838   -3.2722 C   0  0  0  0  0  0  0  0  0  0  0  0
   -2.5141   -2.9959   -3.0688 C   0  0  0  0  0  0  0  0  0  0  0  0
   -1.5520   -3.3567   -3.9414 N   0  0  0  0  0  0  0  0  0  0  0  0
   -0.3183   -2.8930   -3.7300 C   0  0  0  0  0  0  0  0  0  0  0  0
   -0.0656   -2.1115   -2.7021 N   0  0  0  0  0  0  0  0  0  0  0  0
   -1.0298   -1.7205   -1.7868 C   0  0  0  0  0  0  0  0  0  0  0  0
   -0.6491   -0.8221   -0.7912 N   0  0  0  0  0  0  0  0  0  0  0  0
    0.7683   -0.4944   -0.6632 C   0  0  0  0  0  0  0  0  0  0  0  0
    1.1253    0.8155   -0.4048 C   0  0  0  0  0  0  0  0  0  0  0  0
    2.4236    1.2019   -0.2361 C   0  0  0  0  0  0  0  0  0  0  0  0
    3.4222    0.2586   -0.3249 C   0  0  0  0  0  0  0  0  0  0  0  0
    4.7603    0.6485   -0.1530 O   0  0  0  0  0  0  0  0  0  0  0  0
    5.0578    2.0091    0.1071 C   0  0  0  0  0  0  0  0  0  0  0  0
    6.5233    2.1628    0.2458 C   0  0  0  0  0  0  0  0  0  0  0  0
    7.3852    1.0856    0.1939 C   0  0  0  0  0  0  0  0  0  0  0  0
    8.7476    1.2464    0.3226 C   0  0  0  0  0  0  0  0  0  0  0  0
    9.2447    2.5318    0.5085 C   0  0  0  0  0  0  0  0  0  0  0  0
    8.3875    3.5956    0.5593 C   0  0  0  0  0  0  0  0  0  0  0  0
    7.0545    3.3818    0.4270 N   0  0  0  0  0  0  0  0  0  0  0  0
    3.1036   -1.0527   -0.5801 C   0  0  0  0  0  0  0  0  0  0  0  0
    4.3607   -2.2865   -0.7021 Cl  0  0  0  0  0  0  0  0  0  0  0  0
    1.7624   -1.4309   -0.7498 C   0  0  0  0  0  0  0  0  0  0  0  0
   -2.2961   -2.1730   -1.9663 C   0  0  0  0  0  0  0  0  0  0  0  0
   -4.1193    0.8683    1.0191 C   0  0  0  0  0  0  0  0  0  0  0  0
   -3.4091    1.5268    0.2154 O   0  0  0  0  0  0  0  0  0  0  0  0
   -4.9922    1.5200    1.9072 N   0  0  0  0  0  0  0  0  0  0  0  0
   -5.8426    0.8236    2.8497 C   0  0  0  0  0  0  0  0  0  0  0  0
   -5.0497    2.9863    1.8856 C   0  0  0  0  0  0  0  0  0  0  0  0
   -4.2232   -1.7601    2.8509 H   0  0  0  0  0  0  0  0  0  0  0  0
   -3.3186   -0.1636    2.9492 H   0  0  0  0  0  0  0  0  0  0  0  0
   -2.5389   -1.5824    2.2439 H   0  0  0  0  0  0  0  0  0  0  0  0
   -4.9614   -1.0653    0.8326 H   0  0  0  0  0  0  0  0  0  0  0  0
   -5.3878   -2.0896   -0.6445 H   0  0  0  0  0  0  0  0  0  0  0  0
   -5.8112   -3.5386   -2.5691 H   0  0  0  0  0  0  0  0  0  0  0  0
   -4.0202   -4.1245   -4.1131 H   0  0  0  0  0  0  0  0  0  0  0  0
    0.5048   -3.1698   -4.4295 H   0  0  0  0  0  0  0  0  0  0  0  0
   -1.2259   -0.3346   -0.1383 H   0  0  0  0  0  0  0  0  0  0  0  0
    0.3449    1.5505   -0.3352 H   0  0  0  0  0  0  0  0  0  0  0  0
    2.6992    2.2494   -0.0292 H   0  0  0  0  0  0  0  0  0  0  0  0
    4.6877    2.6304   -0.7381 H   0  0  0  0  0  0  0  0  0  0  0  0
    4.5542    2.3403    1.0624 H   0  0  0  0  0  0  0  0  0  0  0  0
    6.9589    0.0990    0.0476 H   0  0  0  0  0  0  0  0  0  0  0  0
    9.4107    0.3915    0.2797 H   0  0  0  0  0  0  0  0  0  0  0  0
   10.3106    2.7203    0.6155 H   0  0  0  0  0  0  0  0  0  0  0  0
    8.7315    4.6190    0.7026 H   0  0  0  0  0  0  0  0  0  0  0  0
    1.5369   -2.4712   -0.9249 H   0  0  0  0  0  0  0  0  0  0  0  0
   -5.3566    0.6963    3.8341 H   0  0  0  0  0  0  0  0  0  0  0  0
   -6.8195    1.3505    2.9360 H   0  0  0  0  0  0  0  0  0  0  0  0
   -6.0525   -0.1829    2.4395 H   0  0  0  0  0  0  0  0  0  0  0  0
   -6.0886    3.2853    2.0998 H   0  0  0  0  0  0  0  0  0  0  0  0
   -4.3414    3.4070    2.6438 H   0  0  0  0  0  0  0  0  0  0  0  0
   -4.7687    3.3790    0.9049 H   0  0  0  0  0  0  0  0  0  0  0  0
  1  2  1  0
  2  3  1  0
  3  4  1  0
  4  5  2  0
  5  6  1  0
  6  7  2  0
  7  8  1  0
  8  9  2  0
  9 10  1  0
 10 11  2  0
 11 12  1  0
 12 13  1  0
 13 14  1  0
 14 15  2  0
 15 16  1  0
 16 17  2  0
 17 18  1  0
 18 19  1  0
 19 20  1  0
 20 21  2  0
 21 22  1  0
 22 23  2  0
 23 24  1  0
 24 25  2  0
 17 26  1  0
 26 27  1  0
 26 28  2  0
 12 29  2  0
  2 30  1  0
 30 31  2  0
 30 32  1  0
 32 33  1  0
 32 34  1  0
 29  4  1  0
 29  8  1  0
 28 14  1  0
 25 20  1  0
  1 35  1  0
  1 36  1  0
  1 37  1  0
  2 38  1  6
  5 39  1  0
  6 40  1  0
  7 41  1  0
 10 42  1  0
 13 43  1  0
 15 44  1  0
 16 45  1  0
 19 46  1  0
 19 47  1  0
 21 48  1  0
 22 49  1  0
 23 50  1  0
 24 51  1  0
 28 52  1  0
 33 53  1  0
 33 54  1  0
 33 55  1  0
 34 56  1  0
 34 57  1  0
 34 58  1  0
M  END
$$$$
[H]c1nc2c(C(=O)OC3([H])C([H])([H])C4([H])N(C([H])([H])[H])C([H])(C([H])([H])C4([H])[H])C3([H])[H])c([H])n(C([H])([H])C([H])(F)F)c2c([H])c1[H]
     RDKit          3D

 46 49  0  0  0  0  0  0  0  0999 V2000
    5.8981    0.3837   -0.2107 C   0  0  0  0  0  0  0  0  0  0  0  0
    4.4711    0.4665   -0.2128 N   0  0  0  0  0  0  0  0  0  0  0  0
    3.8391   -0.2449   -1.2942 C   0  0  0  0  0  0  0  0  0  0  0  0
    3.9220   -1.7238   -0.8968 C   0  0  0  0  0  0  0  0  0  0  0  0
    4.0679   -1.6559    0.5897 C   0  0  0  0  0  0  0  0  0  0  0  0
    3.9181   -0.2068    0.9467 C   0  0  0  0  0  0  0  0  0  0  0  0
    2.4546    0.0995    1.1203 C   0  0  0  0  0  0  0  0  0  0  0  0
    1.8138    0.6574   -0.1155 C   0  0  0  0  0  0  0  0  0  0  0  0
    2.3940    0.1288   -1.3933 C   0  0  0  0  0  0  0  0  0  0  0  0
    0.4420    0.3069   -0.0916 O   0  0  0  0  0  0  0  0  0  0  0  0
   -0.5798    1.2321   -0.0628 C   0  0  0  0  0  0  0  0  0  0  0  0
   -0.2708    2.4458   -0.0577 O   0  0  0  0  0  0  0  0  0  0  0  0
   -1.9823    0.8631   -0.0383 C   0  0  0  0  0  0  0  0  0  0  0  0
   -3.0236    1.7634   -0.0094 C   0  0  0  0  0  0  0  0  0  0  0  0
   -4.1940    1.1372    0.0081 N   0  0  0  0  0  0  0  0  0  0  0  0
   -5.4926    1.7704    0.0399 C   0  0  0  0  0  0  0  0  0  0  0  0
   -5.9155    1.9777    1.5006 C   0  0  0  0  0  0  0  0  0  0  0  0
   -7.1534    2.5812    1.5564 F   0  0  0  0  0  0  0  0  0  0  0  0
   -5.0277    2.8256    2.1327 F   0  0  0  0  0  0  0  0  0  0  0  0
   -3.9154   -0.1947   -0.0097 C   0  0  0  0  0  0  0  0  0  0  0  0
   -4.7716   -1.2682   -0.0027 C   0  0  0  0  0  0  0  0  0  0  0  0
   -4.2025   -2.5259   -0.0256 C   0  0  0  0  0  0  0  0  0  0  0  0
   -2.8246   -2.6775   -0.0543 C   0  0  0  0  0  0  0  0  0  0  0  0
   -1.9952   -1.6052   -0.0609 N   0  0  0  0  0  0  0  0  0  0  0  0
   -2.5524   -0.3939   -0.0386 C   0  0  0  0  0  0  0  0  0  0  0  0
    6.2764    0.6190    0.7976 H   0  0  0  0  0  0  0  0  0  0  0  0
    6.3294    1.1688   -0.8864 H   0  0  0  0  0  0  0  0  0  0  0  0
    6.2973   -0.5890   -0.5499 H   0  0  0  0  0  0  0  0  0  0  0  0
    4.3372   -0.0632   -2.2705 H   0  0  0  0  0  0  0  0  0  0  0  0
    4.8171   -2.1835   -1.3745 H   0  0  0  0  0  0  0  0  0  0  0  0
    3.0221   -2.2771   -1.1702 H   0  0  0  0  0  0  0  0  0  0  0  0
    5.0269   -2.0975    0.9056 H   0  0  0  0  0  0  0  0  0  0  0  0
    3.2722   -2.2204    1.1226 H   0  0  0  0  0  0  0  0  0  0  0  0
    4.5330    0.0172    1.8218 H   0  0  0  0  0  0  0  0  0  0  0  0
    1.9624   -0.8341    1.4657 H   0  0  0  0  0  0  0  0  0  0  0  0
    2.3689    0.8248    1.9641 H   0  0  0  0  0  0  0  0  0  0  0  0
    1.9591    1.7597   -0.1083 H   0  0  0  0  0  0  0  0  0  0  0  0
    2.2858    0.8703   -2.2127 H   0  0  0  0  0  0  0  0  0  0  0  0
    1.8382   -0.7845   -1.7464 H   0  0  0  0  0  0  0  0  0  0  0  0
   -2.9388    2.8637   -0.0009 H   0  0  0  0  0  0  0  0  0  0  0  0
   -5.3925    2.7890   -0.3811 H   0  0  0  0  0  0  0  0  0  0  0  0
   -6.2432    1.1866   -0.4938 H   0  0  0  0  0  0  0  0  0  0  0  0
   -5.9496    1.0153    2.0391 H   0  0  0  0  0  0  0  0  0  0  0  0
   -5.8277   -1.1011    0.0198 H   0  0  0  0  0  0  0  0  0  0  0  0
   -4.8423   -3.4084   -0.0210 H   0  0  0  0  0  0  0  0  0  0  0  0
   -2.4515   -3.6982   -0.0712 H   0  0  0  0  0  0  0  0  0  0  0  0
  1  2  1  0
  2  3  1  0
  3  4  1  0
  4  5  1  0
  5  6  1  0
  6  7  1  0
  7  8  1  0
  8  9  1  0
  8 10  1  0
 10 11  1  0
 11 12  2  0
 11 13  1  0
 13 14  2  0
 14 15  1  0
 15 16  1  0
 16 17  1  0
 17 18  1  0
 17 19  1  0
 15 20  1  0
 20 21  2  0
 21 22  1  0
 22 23  2  0
 23 24  1  0
 24 25  2  0
  6  2  1  0
 25 13  1  0
  9  3  1  0
 25 20  1  0
  1 26  1  0
  1 27  1  0
  1 28  1  0
  3 29  1  0
  4 30  1  0
  4 31  1  0
  5 32  1  0
  5 33  1  0
  6 34  1  0
  7 35  1  0
  7 36  1  0
  8 37  1  0
  9 38  1  0
  9 39  1  0
 14 40  1  0
 16 41  1  0
 16 42  1  0
 17 43  1  0
 21 44  1  0
 22 45  1  0
 23 46  1  0
M  END
$$$$
[H]OC(=O)C([H])([H])[C@@]([H])(C(=O)N([H])[C@]([H])(C(=O)O[H])C([H])([H])c1c([H])c([H])c([H])c([H])c1[H])N([H])C(=O)[C@@]([H])(N([H])[H])C([H])([H])C([H])(C([H])([H])[H])C([H])([H])[H]
     RDKit          3D

 55 55  0  0  0  0  0  0  0  0999 V2000
    5.1920    2.1579    1.4724 C   0  0  0  0  0  0  0  0  0  0  0  0
    4.4127    0.8527    1.4366 C   0  0  0  0  0  0  0  0  0  0  0  0
    2.9690    1.0326    1.7607 C   0  0  0  0  0  0  0  0  0  0  0  0
    4.7275    0.0045    0.2618 C   0  0  0  0  0  0  0  0  0  0  0  0
    4.4825    0.5657   -1.0867 C   0  0  2  0  0  0  0  0  0  0  0  0
    5.2167    1.7914   -1.3637 N   0  0  0  0  0  0  0  0  0  0  0  0
    3.0696    0.6990   -1.4763 C   0  0  0  0  0  0  0  0  0  0  0  0
    2.6377    1.7962   -1.9186 O   0  0  0  0  0  0  0  0  0  0  0  0
    2.1587   -0.3827   -1.3746 N   0  0  0  0  0  0  0  0  0  0  0  0
    0.7884   -0.2162   -1.7765 C   0  0  1  0  0  0  0  0  0  0  0  0
    0.4828   -0.9582   -3.0549 C   0  0  0  0  0  0  0  0  0  0  0  0
    0.6852   -2.4106   -2.9850 C   0  0  0  0  0  0  0  0  0  0  0  0
    0.4378   -3.1574   -4.1230 O   0  0  0  0  0  0  0  0  0  0  0  0
    1.0673   -3.0047   -1.9560 O   0  0  0  0  0  0  0  0  0  0  0  0
   -0.1969   -0.5253   -0.7131 C   0  0  0  0  0  0  0  0  0  0  0  0
    0.1959   -0.8793    0.4271 O   0  0  0  0  0  0  0  0  0  0  0  0
   -1.5929   -0.4423   -0.9133 N   0  0  0  0  0  0  0  0  0  0  0  0
   -2.5542   -0.7461    0.1608 C   0  0  1  0  0  0  0  0  0  0  0  0
   -3.4592    0.4281    0.2211 C   0  0  0  0  0  0  0  0  0  0  0  0
   -4.5293    0.4150    1.2096 C   0  0  0  0  0  0  0  0  0  0  0  0
   -4.3760    0.9053    2.5018 C   0  0  0  0  0  0  0  0  0  0  0  0
   -5.4142    0.8835    3.3977 C   0  0  0  0  0  0  0  0  0  0  0  0
   -6.6458    0.3735    3.0468 C   0  0  0  0  0  0  0  0  0  0  0  0
   -6.8430   -0.1305    1.7547 C   0  0  0  0  0  0  0  0  0  0  0  0
   -5.7672   -0.0909    0.8752 C   0  0  0  0  0  0  0  0  0  0  0  0
   -3.2009   -2.0244   -0.2155 C   0  0  0  0  0  0  0  0  0  0  0  0
   -4.1554   -2.6783    0.5469 O   0  0  0  0  0  0  0  0  0  0  0  0
   -2.8871   -2.5936   -1.3022 O   0  0  0  0  0  0  0  0  0  0  0  0
    4.5446    2.9487    1.0514 H   0  0  0  0  0  0  0  0  0  0  0  0
    5.3997    2.4504    2.5447 H   0  0  0  0  0  0  0  0  0  0  0  0
    6.1703    2.0489    1.0004 H   0  0  0  0  0  0  0  0  0  0  0  0
    4.8397    0.2772    2.3333 H   0  0  0  0  0  0  0  0  0  0  0  0
    2.4643    1.5691    0.9447 H   0  0  0  0  0  0  0  0  0  0  0  0
    2.8174    1.6689    2.6653 H   0  0  0  0  0  0  0  0  0  0  0  0
    2.5165    0.0304    1.8828 H   0  0  0  0  0  0  0  0  0  0  0  0
    4.1458   -0.9426    0.3661 H   0  0  0  0  0  0  0  0  0  0  0  0
    5.7982   -0.3383    0.3890 H   0  0  0  0  0  0  0  0  0  0  0  0
    4.9849   -0.1863   -1.8047 H   0  0  0  0  0  0  0  0  0  0  0  0
    5.6046    1.8191   -2.3350 H   0  0  0  0  0  0  0  0  0  0  0  0
    4.5531    2.6183   -1.3190 H   0  0  0  0  0  0  0  0  0  0  0  0
    2.4816   -1.2816   -1.0091 H   0  0  0  0  0  0  0  0  0  0  0  0
    0.5894    0.8742   -2.0457 H   0  0  0  0  0  0  0  0  0  0  0  0
   -0.6188   -0.7826   -3.2461 H   0  0  0  0  0  0  0  0  0  0  0  0
    0.9801   -0.4963   -3.9344 H   0  0  0  0  0  0  0  0  0  0  0  0
    1.2368   -3.5402   -4.6102 H   0  0  0  0  0  0  0  0  0  0  0  0
   -1.9697   -0.1580   -1.8477 H   0  0  0  0  0  0  0  0  0  0  0  0
   -1.9387   -0.9199    1.0715 H   0  0  0  0  0  0  0  0  0  0  0  0
   -2.8053    1.3173    0.4708 H   0  0  0  0  0  0  0  0  0  0  0  0
   -3.8093    0.6481   -0.8108 H   0  0  0  0  0  0  0  0  0  0  0  0
   -3.3920    1.2961    2.7370 H   0  0  0  0  0  0  0  0  0  0  0  0
   -5.2946    1.2648    4.3979 H   0  0  0  0  0  0  0  0  0  0  0  0
   -7.4727    0.3384    3.7119 H   0  0  0  0  0  0  0  0  0  0  0  0
   -7.8023   -0.5367    1.4553 H   0  0  0  0  0  0  0  0  0  0  0  0
   -5.9646   -0.4967   -0.1285 H   0  0  0  0  0  0  0  0  0  0  0  0
   -4.9606   -3.1552    0.2064 H   0  0  0  0  0  0  0  0  0  0  0  0
  1  2  1  0
  2  3  1  0
  2  4  1  0
  4  5  1  0
  5  6  1  0
  5  7  1  0
  7  8  2  0
  7  9  1  0
  9 10  1  0
 10 11  1  0
 11 12  1  0
 12 13  1  0
 12 14  2  0
 10 15  1  0
 15 16  2  0
 15 17  1  0
 17 18  1  0
 18 19  1  0
 19 20  1  0
 20 21  2  0
 21 22  1  0
 22 23  2  0
 23 24  1  0
 24 25  2  0
 18 26  1  0
 26 27  1  0
 26 28  2  0
 25 20  1  0
  1 29  1  0
  1 30  1  0
  1 31  1  0
  2 32  1  0
  3 33  1  0
  3 34  1  0
  3 35  1  0
  4 36  1  0
  4 37  1  0
  5 38  1  6
  6 39  1  0
  6 40  1  0
  9 41  1  0
 10 42  1  6
 11 43  1  0
 11 44  1  0
 13 45  1  0
 17 46  1  0
 18 47  1  1
 19 48  1  0
 19 49  1  0
 21 50  1  0
 22 51  1  0
 23 52  1  0
 24 53  1  0
 25 54  1  0
 27 55  1  0
M  END
$$$$
[H]c1nc(N([H])c2c([H])c([H])c([N+](=O)[O-])c([H])c2OC([H])([H])[H])nc(N([H])c2c([H])c([H])c([H])c([H])c2S(=O)(=O)C([H])(C([H])([H])[H])C([H])([H])[H])c1Cl
     RDKit          3D

 52 54  0  0  0  0  0  0  0  0999 V2000
    5.3729    2.6168   -2.1854 C   0  0  0  0  0  0  0  0  0  0  0  0
    4.5964    1.6737   -1.4959 O   0  0  0  0  0  0  0  0  0  0  0  0
    5.1794    0.6551   -0.7614 C   0  0  0  0  0  0  0  0  0  0  0  0
    6.5496    0.5376   -0.6861 C   0  0  0  0  0  0  0  0  0  0  0  0
    7.1629   -0.4517    0.0269 C   0  0  0  0  0  0  0  0  0  0  0  0
    6.3554   -1.3390    0.6762 C   0  0  0  0  0  0  0  0  0  0  0  0
    4.9635   -1.2241    0.6029 C   0  0  0  0  0  0  0  0  0  0  0  0
    4.3253   -0.2461   -0.1018 C   0  0  0  0  0  0  0  0  0  0  0  0
    2.9482   -0.0410   -0.2406 N   0  0  0  0  0  0  0  0  0  0  0  0
    1.9284   -0.8433    0.3485 C   0  0  0  0  0  0  0  0  0  0  0  0
    2.1080   -1.9066    1.1183 N   0  0  0  0  0  0  0  0  0  0  0  0
    1.1158   -2.6314    1.6510 C   0  0  0  0  0  0  0  0  0  0  0  0
   -0.1767   -2.2655    1.3949 C   0  0  0  0  0  0  0  0  0  0  0  0
   -1.4700   -3.2135    2.0917 Cl  0  0  0  0  0  0  0  0  0  0  0  0
   -0.4307   -1.1509    0.5886 C   0  0  0  0  0  0  0  0  0  0  0  0
   -1.7766   -0.7912    0.3410 N   0  0  0  0  0  0  0  0  0  0  0  0
   -2.3174    0.2451   -0.4093 C   0  0  0  0  0  0  0  0  0  0  0  0
   -1.5773    1.1426   -1.1337 C   0  0  0  0  0  0  0  0  0  0  0  0
   -2.1600    2.1744   -1.8952 C   0  0  0  0  0  0  0  0  0  0  0  0
   -3.5231    2.3068   -1.9290 C   0  0  0  0  0  0  0  0  0  0  0  0
   -4.2858    1.4160   -1.2084 C   0  0  0  0  0  0  0  0  0  0  0  0
   -3.6992    0.4121   -0.4680 C   0  0  0  0  0  0  0  0  0  0  0  0
   -4.7259   -0.6528    0.4100 S   0  0  0  0  0  0  0  0  0  0  0  0
   -4.6439   -2.0806   -0.0455 O   0  0  0  0  0  0  0  0  0  0  0  0
   -4.4492   -0.6544    1.9061 O   0  0  0  0  0  0  0  0  0  0  0  0
   -6.4655   -0.2305    0.1669 C   0  0  0  0  0  0  0  0  0  0  0  0
   -7.2192   -1.4064    0.8152 C   0  0  0  0  0  0  0  0  0  0  0  0
   -6.8503    1.0305    0.8529 C   0  0  0  0  0  0  0  0  0  0  0  0
    0.6226   -0.5118    0.1176 N   0  0  0  0  0  0  0  0  0  0  0  0
    8.5762   -0.5059    0.0560 N   0  0  0  0  0  0  0  0  0  0  0  0
    9.3245    0.4161   -0.6180 O   0  0  0  0  0  0  0  0  0  0  0  0
    9.1713   -1.3930    0.6950 O   0  0  0  0  0  0  0  0  0  0  0  0
    6.1662    3.0499   -1.5482 H   0  0  0  0  0  0  0  0  0  0  0  0
    5.8913    2.1004   -3.0429 H   0  0  0  0  0  0  0  0  0  0  0  0
    4.6841    3.4015   -2.5851 H   0  0  0  0  0  0  0  0  0  0  0  0
    7.1349    1.2795   -1.2283 H   0  0  0  0  0  0  0  0  0  0  0  0
    6.8066   -2.1371    1.2517 H   0  0  0  0  0  0  0  0  0  0  0  0
    4.4096   -1.9645    1.1438 H   0  0  0  0  0  0  0  0  0  0  0  0
    2.6352    0.7871   -0.8388 H   0  0  0  0  0  0  0  0  0  0  0  0
    1.3552   -3.5082    2.2850 H   0  0  0  0  0  0  0  0  0  0  0  0
   -2.4824   -1.4436    0.8170 H   0  0  0  0  0  0  0  0  0  0  0  0
   -0.5054    1.1047   -1.1602 H   0  0  0  0  0  0  0  0  0  0  0  0
   -1.5486    2.8672   -2.4564 H   0  0  0  0  0  0  0  0  0  0  0  0
   -3.9527    3.1071   -2.5210 H   0  0  0  0  0  0  0  0  0  0  0  0
   -5.3537    1.5549   -1.2658 H   0  0  0  0  0  0  0  0  0  0  0  0
   -6.6819   -0.2892   -0.8947 H   0  0  0  0  0  0  0  0  0  0  0  0
   -8.2598   -1.4516    0.4951 H   0  0  0  0  0  0  0  0  0  0  0  0
   -6.6516   -2.3440    0.5937 H   0  0  0  0  0  0  0  0  0  0  0  0
   -7.2109   -1.2909    1.9249 H   0  0  0  0  0  0  0  0  0  0  0  0
   -7.3712    1.6831    0.0927 H   0  0  0  0  0  0  0  0  0  0  0  0
   -6.0004    1.5665    1.3258 H   0  0  0  0  0  0  0  0  0  0  0  0
   -7.5942    0.8398    1.6352 H   0  0  0  0  0  0  0  0  0  0  0  0
  1  2  1  0
  2  3  1  0
  3  4  2  0
  4  5  1  0
  5  6  2  0
  6  7  1  0
  7  8  2  0
  8  9  1  0
  9 10  1  0
 10 11  2  0
 11 12  1  0
 12 13  2  0
 13 14  1  0
 13 15  1  0
 15 16  1  0
 16 17  1  0
 17 18  2  0
 18 19  1  0
 19 20  2  0
 20 21  1  0
 21 22  2  0
 22 23  1  0
 23 24  2  0
 23 25  2  0
 23 26  1  0
 26 27  1  0
 26 28  1  0
 15 29  2  0
  5 30  1  0
 30 31  1  0
 30 32  2  0
  8  3  1  0
 29 10  1  0
 22 17  1  0
  1 33  1  0
  1 34  1  0
  1 35  1  0
  4 36  1  0
  6 37  1  0
  7 38  1  0
  9 39  1  0
 12 40  1  0
 16 41  1  0
 18 42  1  0
 19 43  1  0
 20 44  1  0
 21 45  1  0
 26 46  1  0
 27 47  1  0
 27 48  1  0
 27 49  1  0
 28 50  1  0
 28 51  1  0
 28 52  1  0
M  CHG  2  30   1  31  -1
M  END
$$$$
[H]N=C(N([H])[H])N([H])C([H])([H])C([H])([H])C([H])([H])[C@@]([H])(C(=O)O[H])N([H])C(=O)[C@@]1([H])N([H])C([H])([H])c2c([H])c([H])c([H])c([H])c2C1([H])[H]
     RDKit          3D

 47 48  0  0  0  0  0  0  0  0999 V2000
    6.9032    1.3606   -0.2355 N   0  0  0  0  0  0  0  0  0  0  0  0
    5.4904    1.1004   -0.0185 C   0  0  0  0  0  0  0  0  0  0  0  0
    4.8864    1.7680    0.8688 N   0  0  0  0  0  0  0  0  0  0  0  0
    4.8606    0.1653   -0.8468 N   0  0  0  0  0  0  0  0  0  0  0  0
    4.6756   -1.2167   -0.6939 C   0  0  0  0  0  0  0  0  0  0  0  0
    3.6864   -1.6484    0.3373 C   0  0  0  0  0  0  0  0  0  0  0  0
    2.3693   -0.9263    0.0458 C   0  0  0  0  0  0  0  0  0  0  0  0
    1.1987   -1.4481    0.7546 C   0  0  2  0  0  0  0  0  0  0  0  0
    0.0110   -0.6939    0.5631 N   0  0  0  0  0  0  0  0  0  0  0  0
   -0.8627   -0.7772   -0.5902 C   0  0  0  0  0  0  0  0  0  0  0  0
   -0.5001   -1.5227   -1.5641 O   0  0  0  0  0  0  0  0  0  0  0  0
   -2.1215   -0.0775   -0.6358 C   0  0  2  0  0  0  0  0  0  0  0  0
   -2.3919    1.3353   -0.6221 C   0  0  0  0  0  0  0  0  0  0  0  0
   -3.9128    1.5106   -0.4815 C   0  0  0  0  0  0  0  0  0  0  0  0
   -4.4104    2.8173   -0.5848 C   0  0  0  0  0  0  0  0  0  0  0  0
   -5.7870    2.9995   -0.4110 C   0  0  0  0  0  0  0  0  0  0  0  0
   -6.6029    1.9373   -0.1525 C   0  0  0  0  0  0  0  0  0  0  0  0
   -6.0877    0.6417   -0.0549 C   0  0  0  0  0  0  0  0  0  0  0  0
   -4.7495    0.4613   -0.2285 C   0  0  0  0  0  0  0  0  0  0  0  0
   -4.2378   -0.9681   -0.2092 C   0  0  0  0  0  0  0  0  0  0  0  0
   -2.9579   -0.8516    0.3906 N   0  0  0  0  0  0  0  0  0  0  0  0
    1.3512   -2.0435    2.0658 C   0  0  0  0  0  0  0  0  0  0  0  0
    2.0137   -3.2863    2.2376 O   0  0  0  0  0  0  0  0  0  0  0  0
    0.9176   -1.5222    3.1174 O   0  0  0  0  0  0  0  0  0  0  0  0
    7.2048    1.9427   -1.0606 H   0  0  0  0  0  0  0  0  0  0  0  0
    7.5821    0.9617    0.4383 H   0  0  0  0  0  0  0  0  0  0  0  0
    5.3944    2.4977    1.4315 H   0  0  0  0  0  0  0  0  0  0  0  0
    4.4475    0.6371   -1.7623 H   0  0  0  0  0  0  0  0  0  0  0  0
    4.3473   -1.6904   -1.6611 H   0  0  0  0  0  0  0  0  0  0  0  0
    5.6871   -1.7242   -0.4708 H   0  0  0  0  0  0  0  0  0  0  0  0
    4.0686   -1.2343    1.3185 H   0  0  0  0  0  0  0  0  0  0  0  0
    3.5924   -2.7245    0.4380 H   0  0  0  0  0  0  0  0  0  0  0  0
    2.5767    0.1446    0.2406 H   0  0  0  0  0  0  0  0  0  0  0  0
    2.2265   -1.0964   -1.0660 H   0  0  0  0  0  0  0  0  0  0  0  0
    0.8971   -2.4369    0.0889 H   0  0  0  0  0  0  0  0  0  0  0  0
   -0.3085   -0.0089    1.3189 H   0  0  0  0  0  0  0  0  0  0  0  0
   -2.5989   -0.4519   -1.6447 H   0  0  0  0  0  0  0  0  0  0  0  0
   -2.1547    1.7655   -1.6682 H   0  0  0  0  0  0  0  0  0  0  0  0
   -1.8472    2.0027    0.0516 H   0  0  0  0  0  0  0  0  0  0  0  0
   -3.7910    3.6556   -0.7842 H   0  0  0  0  0  0  0  0  0  0  0  0
   -6.2357    3.9863   -0.5010 H   0  0  0  0  0  0  0  0  0  0  0  0
   -7.6751    2.0423   -0.0018 H   0  0  0  0  0  0  0  0  0  0  0  0
   -6.6963   -0.2092    0.1578 H   0  0  0  0  0  0  0  0  0  0  0  0
   -4.9247   -1.6511    0.2787 H   0  0  0  0  0  0  0  0  0  0  0  0
   -4.0590   -1.2402   -1.3008 H   0  0  0  0  0  0  0  0  0  0  0  0
   -2.9980   -0.1715    1.2262 H   0  0  0  0  0  0  0  0  0  0  0  0
    1.5227   -4.1115    1.8810 H   0  0  0  0  0  0  0  0  0  0  0  0
  1  2  1  0
  2  3  2  3
  2  4  1  0
  4  5  1  0
  5  6  1  0
  6  7  1  0
  7  8  1  0
  8  9  1  0
  9 10  1  0
 10 11  2  0
 10 12  1  0
 12 13  1  0
 13 14  1  0
 14 15  2  0
 15 16  1  0
 16 17  2  0
 17 18  1  0
 18 19  2  0
 19 20  1  0
 20 21  1  0
  8 22  1  0
 22 23  1  0
 22 24  2  0
 21 12  1  0
 19 14  1  0
  1 25  1  0
  1 26  1  0
  3 27  1  0
  4 28  1  0
  5 29  1  0
  5 30  1  0
  6 31  1  0
  6 32  1  0
  7 33  1  0
  7 34  1  0
  8 35  1  6
  9 36  1  0
 12 37  1  6
 13 38  1  0
 13 39  1  0
 15 40  1  0
 16 41  1  0
 17 42  1  0
 18 43  1  0
 20 44  1  0
 20 45  1  0
 21 46  1  0
 23 47  1  0
M  END
$$$$
[H]C1=C(C(=O)[O-])N2C(=O)/C(=C(\[H])c3sc4c(c3[H])OC([H])([H])C(=O)C4([H])[H])[C@@]2([H])S1
     RDKit          3D

 30 33  0  0  0  0  0  0  0  0999 V2000
   -6.5793   -1.0910    1.1806 O   0  0  0  0  0  0  0  0  0  0  0  0
   -5.8343   -0.5346    0.1525 C   0  0  0  0  0  0  0  0  0  0  0  0
   -6.4022    0.0151   -0.8284 O   0  0  0  0  0  0  0  0  0  0  0  0
   -4.3595   -0.6011    0.2350 C   0  0  0  0  0  0  0  0  0  0  0  0
   -3.7546   -1.1753    1.2458 C   0  0  0  0  0  0  0  0  0  0  0  0
   -1.9990   -1.0203    0.9269 S   0  0  0  0  0  0  0  0  0  0  0  0
   -2.2188   -0.6464   -0.8699 C   0  0  1  0  0  0  0  0  0  0  0  0
   -3.5352   -0.0298   -0.7378 N   0  0  0  0  0  0  0  0  0  0  0  0
   -3.1227    0.8714   -1.7714 C   0  0  0  0  0  0  0  0  0  0  0  0
   -3.6572    1.5588   -2.6801 O   0  0  0  0  0  0  0  0  0  0  0  0
   -1.7436    0.6394   -1.2950 C   0  0  0  0  0  0  0  0  0  0  0  0
   -0.6862    1.3829   -1.3363 C   0  0  0  0  0  0  0  0  0  0  0  0
    0.5799    0.8664   -0.7907 C   0  0  0  0  0  0  0  0  0  0  0  0
    1.4816    1.5218   -0.0003 C   0  0  0  0  0  0  0  0  0  0  0  0
    2.6034    0.8396    0.3523 C   0  0  0  0  0  0  0  0  0  0  0  0
    3.6384    1.3913    1.1743 O   0  0  0  0  0  0  0  0  0  0  0  0
    4.6271    0.5363    1.6922 C   0  0  0  0  0  0  0  0  0  0  0  0
    5.0038   -0.5150    0.6933 C   0  0  0  0  0  0  0  0  0  0  0  0
    6.1383   -0.7066    0.3128 O   0  0  0  0  0  0  0  0  0  0  0  0
    3.9068   -1.3352    0.1721 C   0  0  0  0  0  0  0  0  0  0  0  0
    2.7232   -0.4367   -0.1164 C   0  0  0  0  0  0  0  0  0  0  0  0
    1.2896   -0.6561   -1.0246 S   0  0  0  0  0  0  0  0  0  0  0  0
   -4.1597   -1.6549    2.1128 H   0  0  0  0  0  0  0  0  0  0  0  0
   -2.1418   -1.5172   -1.5193 H   0  0  0  0  0  0  0  0  0  0  0  0
   -0.6967    2.3777   -1.7601 H   0  0  0  0  0  0  0  0  0  0  0  0
    1.2455    2.5756    0.3130 H   0  0  0  0  0  0  0  0  0  0  0  0
    4.3763    0.1168    2.6885 H   0  0  0  0  0  0  0  0  0  0  0  0
    5.5427    1.1386    1.8572 H   0  0  0  0  0  0  0  0  0  0  0  0
    3.5790   -2.1007    0.8922 H   0  0  0  0  0  0  0  0  0  0  0  0
    4.1552   -1.8108   -0.8053 H   0  0  0  0  0  0  0  0  0  0  0  0
  1  2  1  0
  2  3  2  0
  2  4  1  0
  4  5  2  0
  5  6  1  0
  6  7  1  0
  7  8  1  0
  8  9  1  0
  9 10  2  0
  9 11  1  0
 11 12  2  0
 12 13  1  0
 13 14  2  0
 14 15  1  0
 15 16  1  0
 16 17  1  0
 17 18  1  0
 18 19  2  0
 18 20  1  0
 20 21  1  0
 21 22  1  0
  8  4  1  0
 22 13  1  0
 11  7  1  0
 21 15  2  0
  5 23  1  0
  7 24  1  6
 12 25  1  0
 14 26  1  0
 17 27  1  0
 17 28  1  0
 20 29  1  0
 20 30  1  0
M  CHG  1   1  -1
M  END
$$$$
[H]OC(=O)C([H])([H])C([H])([H])[C@@]([H])(C(=O)N([H])[C@]([H])(C(=O)O[H])C([H])([H])c1c([H])c([H])c([H])c([H])c1[H])N([H])C(=O)[C@@]([H])(N([H])C(=O)[C@@]([H])(N([H])C(=O)[C@@]([H])(N([H])C(=O)c1c([H])c([H])c(S(=O)(=O)N([H])[H])c([H])c1[H])C([H])([H])c1c([H])c([H])c([H])c([H])c1[H])C([H])([H])c1c([H])c([H])c([H])c([H])c1[H])C([H])([H])c1c([H])c([H])c([H])c([H])c1[H]
     RDKit          3D

116120  0  0  0  0  0  0  0  0999 V2000
   10.3166    6.3554    1.5026 N   0  0  0  0  0  0  0  0  0  0  0  0
    9.1677    6.4359    0.2286 S   0  0  0  0  0  0  0  0  0  0  0  0
    9.8862    6.6482   -1.0858 O   0  0  0  0  0  0  0  0  0  0  0  0
    8.1859    7.5321    0.4667 O   0  0  0  0  0  0  0  0  0  0  0  0
    8.2700    4.9216    0.1712 C   0  0  0  0  0  0  0  0  0  0  0  0
    8.7459    3.8813   -0.6076 C   0  0  0  0  0  0  0  0  0  0  0  0
    8.0395    2.6984   -0.6787 C   0  0  0  0  0  0  0  0  0  0  0  0
    6.8534    2.5367    0.0223 C   0  0  0  0  0  0  0  0  0  0  0  0
    6.3897    3.5604    0.7856 C   0  0  0  0  0  0  0  0  0  0  0  0
    7.0963    4.7517    0.8585 C   0  0  0  0  0  0  0  0  0  0  0  0
    6.1869    1.2703   -0.0915 C   0  0  0  0  0  0  0  0  0  0  0  0
    6.6984    0.3388   -0.7843 O   0  0  0  0  0  0  0  0  0  0  0  0
    4.9321    1.0483    0.5787 N   0  0  0  0  0  0  0  0  0  0  0  0
    4.3017   -0.2895    0.4181 C   0  0  1  0  0  0  0  0  0  0  0  0
    3.6565   -0.6290    1.7141 C   0  0  0  0  0  0  0  0  0  0  0  0
    4.5671   -0.6555    2.8764 C   0  0  0  0  0  0  0  0  0  0  0  0
    5.2989   -1.8019    3.1996 C   0  0  0  0  0  0  0  0  0  0  0  0
    6.1565   -1.8649    4.2808 C   0  0  0  0  0  0  0  0  0  0  0  0
    6.3022   -0.7497    5.0779 C   0  0  0  0  0  0  0  0  0  0  0  0
    5.6034    0.3906    4.7934 C   0  0  0  0  0  0  0  0  0  0  0  0
    4.7426    0.4221    3.6933 C   0  0  0  0  0  0  0  0  0  0  0  0
    3.3275   -0.1325   -0.6984 C   0  0  0  0  0  0  0  0  0  0  0  0
    3.2228    1.0107   -1.2680 O   0  0  0  0  0  0  0  0  0  0  0  0
    2.5403   -1.2224   -1.1135 N   0  0  0  0  0  0  0  0  0  0  0  0
    1.5731   -1.1510   -2.2087 C   0  0  1  0  0  0  0  0  0  0  0  0
    1.9402   -2.1043   -3.2614 C   0  0  0  0  0  0  0  0  0  0  0  0
    2.0681   -3.5374   -2.8726 C   0  0  0  0  0  0  0  0  0  0  0  0
    3.2588   -4.0090   -2.3417 C   0  0  0  0  0  0  0  0  0  0  0  0
    3.3832   -5.3380   -2.0525 C   0  0  0  0  0  0  0  0  0  0  0  0
    2.3297   -6.2436   -2.2807 C   0  0  0  0  0  0  0  0  0  0  0  0
    1.1585   -5.7672   -2.8040 C   0  0  0  0  0  0  0  0  0  0  0  0
    1.0528   -4.4159   -3.0904 C   0  0  0  0  0  0  0  0  0  0  0  0
    0.1976   -1.0341   -1.7245 C   0  0  0  0  0  0  0  0  0  0  0  0
    0.0268   -1.0747   -0.4813 O   0  0  0  0  0  0  0  0  0  0  0  0
   -0.8940   -0.8649   -2.5815 N   0  0  0  0  0  0  0  0  0  0  0  0
   -2.2544   -0.6751   -2.3285 C   0  0  1  0  0  0  0  0  0  0  0  0
   -3.3046   -1.1614   -3.2364 C   0  0  0  0  0  0  0  0  0  0  0  0
   -3.4351   -2.5854   -3.4858 C   0  0  0  0  0  0  0  0  0  0  0  0
   -2.8765   -3.2302   -4.5898 C   0  0  0  0  0  0  0  0  0  0  0  0
   -3.0616   -4.5572   -4.7512 C   0  0  0  0  0  0  0  0  0  0  0  0
   -3.7707   -5.3666   -3.9112 C   0  0  0  0  0  0  0  0  0  0  0  0
   -4.3386   -4.7431   -2.7949 C   0  0  0  0  0  0  0  0  0  0  0  0
   -4.1586   -3.3970   -2.6164 C   0  0  0  0  0  0  0  0  0  0  0  0
   -2.6980   -0.9205   -0.8731 C   0  0  0  0  0  0  0  0  0  0  0  0
   -2.4371   -1.9157   -0.2145 O   0  0  0  0  0  0  0  0  0  0  0  0
   -3.4618    0.1233   -0.2851 N   0  0  0  0  0  0  0  0  0  0  0  0
   -4.0150    0.1966    1.0558 C   0  0  1  0  0  0  0  0  0  0  0  0
   -2.7384    0.5052    1.8890 C   0  0  0  0  0  0  0  0  0  0  0  0
   -2.8931    0.6657    3.3217 C   0  0  0  0  0  0  0  0  0  0  0  0
   -3.4520   -0.4292    4.1029 C   0  0  0  0  0  0  0  0  0  0  0  0
   -3.3663   -0.3316    5.5130 O   0  0  0  0  0  0  0  0  0  0  0  0
   -4.0048   -1.4655    3.6706 O   0  0  0  0  0  0  0  0  0  0  0  0
   -4.9006    1.3490    1.1349 C   0  0  0  0  0  0  0  0  0  0  0  0
   -4.8153    2.1880    0.1502 O   0  0  0  0  0  0  0  0  0  0  0  0
   -5.8298    1.6705    2.1205 N   0  0  0  0  0  0  0  0  0  0  0  0
   -6.6190    2.8873    1.9976 C   0  0  1  0  0  0  0  0  0  0  0  0
   -8.0576    2.5668    1.6499 C   0  0  0  0  0  0  0  0  0  0  0  0
   -8.1219    1.8261    0.3456 C   0  0  0  0  0  0  0  0  0  0  0  0
   -8.0581    0.4551    0.2540 C   0  0  0  0  0  0  0  0  0  0  0  0
   -8.1202   -0.1407   -0.9907 C   0  0  0  0  0  0  0  0  0  0  0  0
   -8.2427    0.5717   -2.1554 C   0  0  0  0  0  0  0  0  0  0  0  0
   -8.3078    1.9477   -2.0744 C   0  0  0  0  0  0  0  0  0  0  0  0
   -8.2481    2.5500   -0.8415 C   0  0  0  0  0  0  0  0  0  0  0  0
   -6.4907    3.7854    3.1617 C   0  0  0  0  0  0  0  0  0  0  0  0
   -7.2317    4.9905    3.1207 O   0  0  0  0  0  0  0  0  0  0  0  0
   -5.7707    3.4916    4.1225 O   0  0  0  0  0  0  0  0  0  0  0  0
   11.0164    5.6206    1.2306 H   0  0  0  0  0  0  0  0  0  0  0  0
    9.8075    6.1091    2.3945 H   0  0  0  0  0  0  0  0  0  0  0  0
    9.6794    4.0102   -1.1592 H   0  0  0  0  0  0  0  0  0  0  0  0
    8.4146    1.8945   -1.2844 H   0  0  0  0  0  0  0  0  0  0  0  0
    5.4561    3.5048    1.3746 H   0  0  0  0  0  0  0  0  0  0  0  0
    6.7160    5.5625    1.4584 H   0  0  0  0  0  0  0  0  0  0  0  0
    4.5302    1.7981    1.1435 H   0  0  0  0  0  0  0  0  0  0  0  0
    5.1155   -0.9877    0.0925 H   0  0  0  0  0  0  0  0  0  0  0  0
    2.8031    0.0563    1.9325 H   0  0  0  0  0  0  0  0  0  0  0  0
    3.1850   -1.6540    1.5612 H   0  0  0  0  0  0  0  0  0  0  0  0
    5.1714   -2.6653    2.5691 H   0  0  0  0  0  0  0  0  0  0  0  0
    6.7371   -2.7267    4.5549 H   0  0  0  0  0  0  0  0  0  0  0  0
    6.9650   -0.7702    5.9211 H   0  0  0  0  0  0  0  0  0  0  0  0
    5.7353    1.2532    5.4319 H   0  0  0  0  0  0  0  0  0  0  0  0
    4.1957    1.3361    3.4784 H   0  0  0  0  0  0  0  0  0  0  0  0
    2.6294   -2.1255   -0.6263 H   0  0  0  0  0  0  0  0  0  0  0  0
    1.8477   -0.1077   -2.6792 H   0  0  0  0  0  0  0  0  0  0  0  0
    2.8562   -1.7499   -3.7953 H   0  0  0  0  0  0  0  0  0  0  0  0
    1.0881   -2.0697   -4.0323 H   0  0  0  0  0  0  0  0  0  0  0  0
    4.0548   -3.2792   -2.1771 H   0  0  0  0  0  0  0  0  0  0  0  0
    4.3031   -5.7285   -1.6484 H   0  0  0  0  0  0  0  0  0  0  0  0
    2.4666   -7.2903   -2.0459 H   0  0  0  0  0  0  0  0  0  0  0  0
    0.3327   -6.4601   -2.9900 H   0  0  0  0  0  0  0  0  0  0  0  0
    0.0717   -4.1170   -3.5155 H   0  0  0  0  0  0  0  0  0  0  0  0
   -0.6189   -0.8934   -3.6340 H   0  0  0  0  0  0  0  0  0  0  0  0
   -2.3472    0.4943   -2.3151 H   0  0  0  0  0  0  0  0  0  0  0  0
   -3.1116   -0.6745   -4.2448 H   0  0  0  0  0  0  0  0  0  0  0  0
   -4.3178   -0.7084   -2.9778 H   0  0  0  0  0  0  0  0  0  0  0  0
   -2.2898   -2.6453   -5.3206 H   0  0  0  0  0  0  0  0  0  0  0  0
   -2.6080   -5.0327   -5.6526 H   0  0  0  0  0  0  0  0  0  0  0  0
   -3.9109   -6.4416   -4.0591 H   0  0  0  0  0  0  0  0  0  0  0  0
   -4.8960   -5.3559   -2.1218 H   0  0  0  0  0  0  0  0  0  0  0  0
   -4.6140   -2.9691   -1.7193 H   0  0  0  0  0  0  0  0  0  0  0  0
   -3.6365    0.9608   -0.9297 H   0  0  0  0  0  0  0  0  0  0  0  0
   -4.4441   -0.7208    1.3850 H   0  0  0  0  0  0  0  0  0  0  0  0
   -2.2707    1.4330    1.4555 H   0  0  0  0  0  0  0  0  0  0  0  0
   -2.0684   -0.3445    1.6457 H   0  0  0  0  0  0  0  0  0  0  0  0
   -1.8418    0.8268    3.7498 H   0  0  0  0  0  0  0  0  0  0  0  0
   -3.4012    1.6205    3.6249 H   0  0  0  0  0  0  0  0  0  0  0  0
   -2.9982   -1.1893    5.9933 H   0  0  0  0  0  0  0  0  0  0  0  0
   -5.9767    1.0706    2.9423 H   0  0  0  0  0  0  0  0  0  0  0  0
   -6.2359    3.4294    1.0730 H   0  0  0  0  0  0  0  0  0  0  0  0
   -8.5019    1.9523    2.4365 H   0  0  0  0  0  0  0  0  0  0  0  0
   -8.6561    3.4795    1.5328 H   0  0  0  0  0  0  0  0  0  0  0  0
   -7.9688   -0.1200    1.1574 H   0  0  0  0  0  0  0  0  0  0  0  0
   -8.0559   -1.2365   -0.9868 H   0  0  0  0  0  0  0  0  0  0  0  0
   -8.2904    0.0707   -3.0969 H   0  0  0  0  0  0  0  0  0  0  0  0
   -8.3955    2.4841   -3.0000 H   0  0  0  0  0  0  0  0  0  0  0  0
   -8.2953    3.6211   -0.7519 H   0  0  0  0  0  0  0  0  0  0  0  0
   -6.9293    5.7075    3.7712 H   0  0  0  0  0  0  0  0  0  0  0  0
  1  2  1  0
  2  3  2  0
  2  4  2  0
  2  5  1  0
  5  6  2  0
  6  7  1  0
  7  8  2  0
  8  9  1  0
  9 10  2  0
  8 11  1  0
 11 12  2  0
 11 13  1  0
 13 14  1  0
 14 15  1  0
 15 16  1  0
 16 17  2  0
 17 18  1  0
 18 19  2  0
 19 20  1  0
 20 21  2  0
 14 22  1  0
 22 23  2  0
 22 24  1  0
 24 25  1  0
 25 26  1  0
 26 27  1  0
 27 28  2  0
 28 29  1  0
 29 30  2  0
 30 31  1  0
 31 32  2  0
 25 33  1  0
 33 34  2  0
 33 35  1  0
 35 36  1  0
 36 37  1  0
 37 38  1  0
 38 39  2  0
 39 40  1  0
 40 41  2  0
 41 42  1  0
 42 43  2  0
 36 44  1  0
 44 45  2  0
 44 46  1  0
 46 47  1  0
 47 48  1  0
 48 49  1  0
 49 50  1  0
 50 51  1  0
 50 52  2  0
 47 53  1  0
 53 54  2  0
 53 55  1  0
 55 56  1  0
 56 57  1  0
 57 58  1  0
 58 59  2  0
 59 60  1  0
 60 61  2  0
 61 62  1  0
 62 63  2  0
 56 64  1  0
 64 65  1  0
 64 66  2  0
 10  5  1  0
 21 16  1  0
 32 27  1  0
 43 38  1  0
 63 58  1  0
  1 67  1  0
  1 68  1  0
  6 69  1  0
  7 70  1  0
  9 71  1  0
 10 72  1  0
 13 73  1  0
 14 74  1  6
 15 75  1  0
 15 76  1  0
 17 77  1  0
 18 78  1  0
 19 79  1  0
 20 80  1  0
 21 81  1  0
 24 82  1  0
 25 83  1  6
 26 84  1  0
 26 85  1  0
 28 86  1  0
 29 87  1  0
 30 88  1  0
 31 89  1  0
 32 90  1  0
 35 91  1  0
 36 92  1  1
 37 93  1  0
 37 94  1  0
 39 95  1  0
 40 96  1  0
 41 97  1  0
 42 98  1  0
 43 99  1  0
 46100  1  0
 47101  1  1
 48102  1  0
 48103  1  0
 49104  1  0
 49105  1  0
 51106  1  0
 55107  1  0
 56108  1  6
 57109  1  0
 57110  1  0
 59111  1  0
 60112  1  0
 61113  1  0
 62114  1  0
 63115  1  0
 65116  1  0
M  END
$$$$
[H]OC(=O)[C@]([H])(N([H])S(=O)(=O)c1c([H])c([H])c(-c2c([H])c([H])c(OC([H])([H])[H])c([H])c2[H])c([H])c1[H])C([H])(C([H])([H])[H])C([H])([H])[H]
     RDKit          3D

 46 47  0  0  0  0  0  0  0  0999 V2000
    7.6254    0.6419    1.6973 C   0  0  0  0  0  0  0  0  0  0  0  0
    6.4236    1.1839    2.2033 O   0  0  0  0  0  0  0  0  0  0  0  0
    5.2244    1.0126    1.5263 C   0  0  0  0  0  0  0  0  0  0  0  0
    5.1949    0.3008    0.3361 C   0  0  0  0  0  0  0  0  0  0  0  0
    4.0193    0.1000   -0.3820 C   0  0  0  0  0  0  0  0  0  0  0  0
    2.8366    0.6254    0.1022 C   0  0  0  0  0  0  0  0  0  0  0  0
    2.8491    1.3314    1.2771 C   0  0  0  0  0  0  0  0  0  0  0  0
    4.0371    1.5250    1.9874 C   0  0  0  0  0  0  0  0  0  0  0  0
    1.5596    0.4522   -0.5903 C   0  0  0  0  0  0  0  0  0  0  0  0
    1.2947   -0.7037   -1.3260 C   0  0  0  0  0  0  0  0  0  0  0  0
    0.0864   -0.8294   -1.9700 C   0  0  0  0  0  0  0  0  0  0  0  0
   -0.8902    0.1590   -1.9164 C   0  0  0  0  0  0  0  0  0  0  0  0
   -0.6347    1.3014   -1.1922 C   0  0  0  0  0  0  0  0  0  0  0  0
    0.5809    1.4086   -0.5541 C   0  0  0  0  0  0  0  0  0  0  0  0
   -2.4072   -0.0884   -2.7780 S   0  0  0  0  0  0  0  0  0  0  0  0
   -2.0972   -0.8278   -4.0219 O   0  0  0  0  0  0  0  0  0  0  0  0
   -2.9864    1.2497   -3.1258 O   0  0  0  0  0  0  0  0  0  0  0  0
   -3.4739   -0.8910   -1.7350 N   0  0  0  0  0  0  0  0  0  0  0  0
   -3.8073   -0.1896   -0.5458 C   0  0  2  0  0  0  0  0  0  0  0  0
   -3.3395   -1.0130    0.6473 C   0  0  0  0  0  0  0  0  0  0  0  0
   -3.6634   -0.3256    1.9560 C   0  0  0  0  0  0  0  0  0  0  0  0
   -3.8106   -2.4266    0.5826 C   0  0  0  0  0  0  0  0  0  0  0  0
   -5.2844    0.0157   -0.4906 C   0  0  0  0  0  0  0  0  0  0  0  0
   -5.8772    0.6667    0.5896 O   0  0  0  0  0  0  0  0  0  0  0  0
   -6.0243   -0.3952   -1.4176 O   0  0  0  0  0  0  0  0  0  0  0  0
    8.4599    0.7883    2.4143 H   0  0  0  0  0  0  0  0  0  0  0  0
    7.9192    1.1313    0.7342 H   0  0  0  0  0  0  0  0  0  0  0  0
    7.5563   -0.4540    1.5045 H   0  0  0  0  0  0  0  0  0  0  0  0
    6.1257   -0.1112   -0.0433 H   0  0  0  0  0  0  0  0  0  0  0  0
    3.9848   -0.4531   -1.3125 H   0  0  0  0  0  0  0  0  0  0  0  0
    1.9328    1.7501    1.6710 H   0  0  0  0  0  0  0  0  0  0  0  0
    4.0273    2.0904    2.9242 H   0  0  0  0  0  0  0  0  0  0  0  0
    2.0502   -1.4799   -1.3741 H   0  0  0  0  0  0  0  0  0  0  0  0
   -0.1490   -1.7162   -2.5489 H   0  0  0  0  0  0  0  0  0  0  0  0
   -1.3912    2.0756   -1.1492 H   0  0  0  0  0  0  0  0  0  0  0  0
    0.7591    2.3148    0.0082 H   0  0  0  0  0  0  0  0  0  0  0  0
   -3.3972   -1.9068   -1.6812 H   0  0  0  0  0  0  0  0  0  0  0  0
   -3.3109    0.8097   -0.4791 H   0  0  0  0  0  0  0  0  0  0  0  0
   -2.2125   -1.0151    0.5645 H   0  0  0  0  0  0  0  0  0  0  0  0
   -4.6386   -0.6710    2.3726 H   0  0  0  0  0  0  0  0  0  0  0  0
   -2.8530   -0.5304    2.6590 H   0  0  0  0  0  0  0  0  0  0  0  0
   -3.7141    0.7660    1.7650 H   0  0  0  0  0  0  0  0  0  0  0  0
   -3.8470   -2.8609    1.6253 H   0  0  0  0  0  0  0  0  0  0  0  0
   -4.8164   -2.5734    0.1663 H   0  0  0  0  0  0  0  0  0  0  0  0
   -3.0600   -3.0694    0.0362 H   0  0  0  0  0  0  0  0  0  0  0  0
   -6.8610    0.8315    0.6240 H   0  0  0  0  0  0  0  0  0  0  0  0
  1  2  1  0
  2  3  1  0
  3  4  2  0
  4  5  1  0
  5  6  2  0
  6  7  1  0
  7  8  2  0
  6  9  1  0
  9 10  2  0
 10 11  1  0
 11 12  2  0
 12 13  1  0
 13 14  2  0
 12 15  1  0
 15 16  2  0
 15 17  2  0
 15 18  1  0
 18 19  1  0
 19 20  1  0
 20 21  1  0
 20 22  1  0
 19 23  1  0
 23 24  1  0
 23 25  2  0
  8  3  1  0
 14  9  1  0
  1 26  1  0
  1 27  1  0
  1 28  1  0
  4 29  1  0
  5 30  1  0
  7 31  1  0
  8 32  1  0
 10 33  1  0
 11 34  1  0
 13 35  1  0
 14 36  1  0
 18 37  1  0
 19 38  1  6
 20 39  1  0
 21 40  1  0
 21 41  1  0
 21 42  1  0
 22 43  1  0
 22 44  1  0
 22 45  1  0
 24 46  1  0
M  END
$$$$
[H]c1c([H])c(S(=O)(=O)N([H])c2nnc(S(=O)(=O)N([H])[H])s2)c([H])c([H])c1N([H])S(=O)(=O)c1c(C([H])([H])[H])c([H])c(C([H])([H])[H])c([H])c1C([H])([H])[H]
     RDKit          3D

 51 53  0  0  0  0  0  0  0  0999 V2000
   -6.7733   -2.5663   -0.0121 C   0  0  0  0  0  0  0  0  0  0  0  0
   -5.5048   -1.8725   -0.4216 C   0  0  0  0  0  0  0  0  0  0  0  0
   -4.3345   -2.3346    0.1266 C   0  0  0  0  0  0  0  0  0  0  0  0
   -3.1196   -1.7265   -0.2181 C   0  0  0  0  0  0  0  0  0  0  0  0
   -1.9246   -2.3389    0.4250 C   0  0  0  0  0  0  0  0  0  0  0  0
   -3.0899   -0.6896   -1.0836 C   0  0  0  0  0  0  0  0  0  0  0  0
   -4.3036   -0.2257   -1.6405 C   0  0  0  0  0  0  0  0  0  0  0  0
   -4.2991    0.8968   -2.6008 C   0  0  0  0  0  0  0  0  0  0  0  0
   -5.4852   -0.8326   -1.2927 C   0  0  0  0  0  0  0  0  0  0  0  0
   -1.6212    0.1362   -1.5437 S   0  0  0  0  0  0  0  0  0  0  0  0
   -1.7131    0.6047   -2.9889 O   0  0  0  0  0  0  0  0  0  0  0  0
   -0.4280   -0.7446   -1.4087 O   0  0  0  0  0  0  0  0  0  0  0  0
   -1.3338    1.5358   -0.6068 N   0  0  0  0  0  0  0  0  0  0  0  0
   -0.2175    1.8182    0.2178 C   0  0  0  0  0  0  0  0  0  0  0  0
    0.3239    3.1202    0.2051 C   0  0  0  0  0  0  0  0  0  0  0  0
    1.3943    3.4901    0.9733 C   0  0  0  0  0  0  0  0  0  0  0  0
    2.0189    2.5911    1.8227 C   0  0  0  0  0  0  0  0  0  0  0  0
    1.5016    1.3194    1.8451 C   0  0  0  0  0  0  0  0  0  0  0  0
    0.4011    0.9393    1.0548 C   0  0  0  0  0  0  0  0  0  0  0  0
    3.3734    3.0793    2.8143 S   0  0  0  0  0  0  0  0  0  0  0  0
    3.5286    2.1375    3.9772 O   0  0  0  0  0  0  0  0  0  0  0  0
    3.0988    4.4819    3.3237 O   0  0  0  0  0  0  0  0  0  0  0  0
    4.8238    3.1184    1.9183 N   0  0  0  0  0  0  0  0  0  0  0  0
    5.3685    1.9451    1.2993 C   0  0  0  0  0  0  0  0  0  0  0  0
    6.4891    1.8561    0.5761 N   0  0  0  0  0  0  0  0  0  0  0  0
    6.8354    0.7455    0.1002 N   0  0  0  0  0  0  0  0  0  0  0  0
    6.0930   -0.3357    0.3134 C   0  0  0  0  0  0  0  0  0  0  0  0
    4.8308    0.3234    1.2582 S   0  0  0  0  0  0  0  0  0  0  0  0
    6.3798   -1.9894   -0.2518 S   0  0  0  0  0  0  0  0  0  0  0  0
    5.6357   -2.2382   -1.7869 N   0  0  0  0  0  0  0  0  0  0  0  0
    5.8052   -2.9409    0.7324 O   0  0  0  0  0  0  0  0  0  0  0  0
    7.8626   -2.1425   -0.4204 O   0  0  0  0  0  0  0  0  0  0  0  0
   -6.6412   -2.9848    0.9987 H   0  0  0  0  0  0  0  0  0  0  0  0
   -6.8827   -3.4203   -0.7088 H   0  0  0  0  0  0  0  0  0  0  0  0
   -7.6269   -1.8600   -0.0790 H   0  0  0  0  0  0  0  0  0  0  0  0
   -4.3644   -3.1801    0.8339 H   0  0  0  0  0  0  0  0  0  0  0  0
   -1.4947   -1.7000    1.2055 H   0  0  0  0  0  0  0  0  0  0  0  0
   -1.1334   -2.6283   -0.2830 H   0  0  0  0  0  0  0  0  0  0  0  0
   -2.2268   -3.2739    0.9782 H   0  0  0  0  0  0  0  0  0  0  0  0
   -3.7433    1.7754   -2.2960 H   0  0  0  0  0  0  0  0  0  0  0  0
   -5.3715    1.2505   -2.7032 H   0  0  0  0  0  0  0  0  0  0  0  0
   -4.0659    0.5293   -3.6362 H   0  0  0  0  0  0  0  0  0  0  0  0
   -6.4302   -0.4868   -1.7129 H   0  0  0  0  0  0  0  0  0  0  0  0
   -2.1229    2.2762   -0.6745 H   0  0  0  0  0  0  0  0  0  0  0  0
   -0.1785    3.8196   -0.4695 H   0  0  0  0  0  0  0  0  0  0  0  0
    1.7888    4.4951    0.9438 H   0  0  0  0  0  0  0  0  0  0  0  0
    1.9592    0.5864    2.5090 H   0  0  0  0  0  0  0  0  0  0  0  0
    0.0656   -0.0709    1.1245 H   0  0  0  0  0  0  0  0  0  0  0  0
    5.3733    4.0029    1.7856 H   0  0  0  0  0  0  0  0  0  0  0  0
    6.0678   -1.7110   -2.5513 H   0  0  0  0  0  0  0  0  0  0  0  0
    5.4114   -3.2201   -1.9718 H   0  0  0  0  0  0  0  0  0  0  0  0
  1  2  1  0
  2  3  2  0
  3  4  1  0
  4  5  1  0
  4  6  2  0
  6  7  1  0
  7  8  1  0
  7  9  2  0
  6 10  1  0
 10 11  2  0
 10 12  2  0
 10 13  1  0
 13 14  1  0
 14 15  2  0
 15 16  1  0
 16 17  2  0
 17 18  1  0
 18 19  2  0
 17 20  1  0
 20 21  2  0
 20 22  2  0
 20 23  1  0
 23 24  1  0
 24 25  2  0
 25 26  1  0
 26 27  2  0
 27 28  1  0
 27 29  1  0
 29 30  1  0
 29 31  2  0
 29 32  2  0
  9  2  1  0
 19 14  1  0
 28 24  1  0
  1 33  1  0
  1 34  1  0
  1 35  1  0
  3 36  1  0
  5 37  1  0
  5 38  1  0
  5 39  1  0
  8 40  1  0
  8 41  1  0
  8 42  1  0
  9 43  1  0
 13 44  1  0
 15 45  1  0
 16 46  1  0
 18 47  1  0
 19 48  1  0
 23 49  1  0
 30 50  1  0
 30 51  1  0
M  END
$$$$
[H]OC(=O)c1c([H])c([H])c(-c2c([H])c([H])c(N3C(=O)N(c4nc([H])n([H])c(=O)c4[H])C4(C3=O)C([H])([H])C([H])([H])N(C([H])([H])c3nc([H])c([H])c([H])c3C([H])([H])[H])C([H])([H])C4([H])[H])c([H])c2[H])c(C([H])([H])[H])c1[H]
     RDKit          3D

 73 78  0  0  0  0  0  0  0  0999 V2000
    6.8745   -0.4829   -0.6272 C   0  0  0  0  0  0  0  0  0  0  0  0
    6.3743    0.8886   -0.9471 C   0  0  0  0  0  0  0  0  0  0  0  0
    6.9711    1.6732   -1.8831 C   0  0  0  0  0  0  0  0  0  0  0  0
    6.5269    2.9438   -2.1969 C   0  0  0  0  0  0  0  0  0  0  0  0
    5.4208    3.4119   -1.5096 C   0  0  0  0  0  0  0  0  0  0  0  0
    4.8388    2.6287   -0.5867 N   0  0  0  0  0  0  0  0  0  0  0  0
    5.2532    1.3994   -0.2702 C   0  0  0  0  0  0  0  0  0  0  0  0
    4.5868    0.6112    0.7524 C   0  0  0  0  0  0  0  0  0  0  0  0
    3.4453    1.1712    1.3911 N   0  0  0  0  0  0  0  0  0  0  0  0
    3.0422    0.2251    2.4540 C   0  0  0  0  0  0  0  0  0  0  0  0
    2.5608   -1.0761    1.9161 C   0  0  0  0  0  0  0  0  0  0  0  0
    1.5854   -0.9320    0.7918 C   0  0  0  0  0  0  0  0  0  0  0  0
    1.9778    0.1254   -0.2184 C   0  0  0  0  0  0  0  0  0  0  0  0
    2.2999    1.3815    0.5167 C   0  0  0  0  0  0  0  0  0  0  0  0
    1.3112   -2.1946    0.1428 N   0  0  0  0  0  0  0  0  0  0  0  0
   -0.0064   -2.0411   -0.4106 C   0  0  0  0  0  0  0  0  0  0  0  0
   -0.4565   -2.7200   -1.3785 O   0  0  0  0  0  0  0  0  0  0  0  0
   -0.6889   -1.0197    0.3060 N   0  0  0  0  0  0  0  0  0  0  0  0
    0.2199   -0.5574    1.2914 C   0  0  0  0  0  0  0  0  0  0  0  0
   -0.0733    0.0515    2.3784 O   0  0  0  0  0  0  0  0  0  0  0  0
   -1.9998   -0.5248    0.1301 C   0  0  0  0  0  0  0  0  0  0  0  0
   -2.8398   -0.4792    1.2234 C   0  0  0  0  0  0  0  0  0  0  0  0
   -4.1238   -0.0126    1.1244 C   0  0  0  0  0  0  0  0  0  0  0  0
   -4.6473    0.4427   -0.0970 C   0  0  0  0  0  0  0  0  0  0  0  0
   -3.8071    0.3936   -1.1754 C   0  0  0  0  0  0  0  0  0  0  0  0
   -2.4950   -0.0834   -1.0734 C   0  0  0  0  0  0  0  0  0  0  0  0
   -6.0191    0.9086   -0.1417 C   0  0  0  0  0  0  0  0  0  0  0  0
   -7.0388    0.1197    0.4043 C   0  0  0  0  0  0  0  0  0  0  0  0
   -8.3418    0.5243    0.3750 C   0  0  0  0  0  0  0  0  0  0  0  0
   -8.6764    1.7413   -0.2052 C   0  0  0  0  0  0  0  0  0  0  0  0
   -7.6817    2.5173   -0.7413 C   0  0  0  0  0  0  0  0  0  0  0  0
   -6.3535    2.0930   -0.7052 C   0  0  0  0  0  0  0  0  0  0  0  0
   -5.3295    2.9800   -1.2880 C   0  0  0  0  0  0  0  0  0  0  0  0
  -10.0627    2.2014   -0.2493 C   0  0  0  0  0  0  0  0  0  0  0  0
  -10.3881    3.4179   -0.8288 O   0  0  0  0  0  0  0  0  0  0  0  0
  -10.9548    1.4434    0.2639 O   0  0  0  0  0  0  0  0  0  0  0  0
    2.1057   -3.3814    0.0269 C   0  0  0  0  0  0  0  0  0  0  0  0
    3.3669   -3.3323   -0.5178 C   0  0  0  0  0  0  0  0  0  0  0  0
    4.0878   -4.5015   -0.6062 C   0  0  0  0  0  0  0  0  0  0  0  0
    5.2654   -4.4922   -1.1077 O   0  0  0  0  0  0  0  0  0  0  0  0
    3.5653   -5.6599   -0.1686 N   0  0  0  0  0  0  0  0  0  0  0  0
    2.3349   -5.7277    0.3663 C   0  0  0  0  0  0  0  0  0  0  0  0
    1.6510   -4.5760    0.4424 N   0  0  0  0  0  0  0  0  0  0  0  0
    7.9876   -0.4214   -0.6465 H   0  0  0  0  0  0  0  0  0  0  0  0
    6.6104   -0.7861    0.4141 H   0  0  0  0  0  0  0  0  0  0  0  0
    6.5572   -1.2297   -1.3641 H   0  0  0  0  0  0  0  0  0  0  0  0
    7.8457    1.2709   -2.4089 H   0  0  0  0  0  0  0  0  0  0  0  0
    7.0192    3.5473   -2.9457 H   0  0  0  0  0  0  0  0  0  0  0  0
    5.0282    4.4066   -1.7165 H   0  0  0  0  0  0  0  0  0  0  0  0
    4.3794   -0.4033    0.3034 H   0  0  0  0  0  0  0  0  0  0  0  0
    5.3590    0.3802    1.5485 H   0  0  0  0  0  0  0  0  0  0  0  0
    2.3454    0.7111    3.1700 H   0  0  0  0  0  0  0  0  0  0  0  0
    3.9757    0.0393    3.0279 H   0  0  0  0  0  0  0  0  0  0  0  0
    2.0217   -1.5983    2.7414 H   0  0  0  0  0  0  0  0  0  0  0  0
    3.4227   -1.6575    1.5645 H   0  0  0  0  0  0  0  0  0  0  0  0
    2.7692   -0.2231   -0.9068 H   0  0  0  0  0  0  0  0  0  0  0  0
    1.0742    0.3141   -0.8572 H   0  0  0  0  0  0  0  0  0  0  0  0
    1.4389    1.5786    1.2019 H   0  0  0  0  0  0  0  0  0  0  0  0
    2.4360    2.2806   -0.0586 H   0  0  0  0  0  0  0  0  0  0  0  0
   -2.4837   -0.8240    2.2085 H   0  0  0  0  0  0  0  0  0  0  0  0
   -4.7922    0.0252    1.9858 H   0  0  0  0  0  0  0  0  0  0  0  0
   -4.1680    0.7280   -2.1345 H   0  0  0  0  0  0  0  0  0  0  0  0
   -1.8341   -0.1188   -1.9354 H   0  0  0  0  0  0  0  0  0  0  0  0
   -6.7358   -0.8265    0.8494 H   0  0  0  0  0  0  0  0  0  0  0  0
   -9.1233   -0.0905    0.7988 H   0  0  0  0  0  0  0  0  0  0  0  0
   -7.9192    3.4667   -1.1970 H   0  0  0  0  0  0  0  0  0  0  0  0
   -4.3537    2.9541   -0.8065 H   0  0  0  0  0  0  0  0  0  0  0  0
   -5.3095    2.7902   -2.3936 H   0  0  0  0  0  0  0  0  0  0  0  0
   -5.6946    4.0548   -1.2166 H   0  0  0  0  0  0  0  0  0  0  0  0
  -11.3407    3.7601   -0.6952 H   0  0  0  0  0  0  0  0  0  0  0  0
    3.7916   -2.4029   -0.8718 H   0  0  0  0  0  0  0  0  0  0  0  0
    4.1036   -6.5476   -0.2312 H   0  0  0  0  0  0  0  0  0  0  0  0
    1.9075   -6.6777    0.7251 H   0  0  0  0  0  0  0  0  0  0  0  0
  1  2  1  0
  2  3  2  0
  3  4  1  0
  4  5  2  0
  5  6  1  0
  6  7  2  0
  7  8  1  0
  8  9  1  0
  9 10  1  0
 10 11  1  0
 11 12  1  0
 12 13  1  0
 13 14  1  0
 12 15  1  0
 15 16  1  0
 16 17  2  0
 16 18  1  0
 18 19  1  0
 19 20  2  0
 18 21  1  0
 21 22  2  0
 22 23  1  0
 23 24  2  0
 24 25  1  0
 25 26  2  0
 24 27  1  0
 27 28  2  0
 28 29  1  0
 29 30  2  0
 30 31  1  0
 31 32  2  0
 32 33  1  0
 30 34  1  0
 34 35  1  0
 34 36  2  0
 15 37  1  0
 37 38  2  0
 38 39  1  0
 39 40  2  0
 39 41  1  0
 41 42  1  0
 42 43  2  0
  7  2  1  0
 14  9  1  0
 26 21  1  0
 32 27  1  0
 43 37  1  0
 19 12  1  0
  1 44  1  0
  1 45  1  0
  1 46  1  0
  3 47  1  0
  4 48  1  0
  5 49  1  0
  8 50  1  0
  8 51  1  0
 10 52  1  0
 10 53  1  0
 11 54  1  0
 11 55  1  0
 13 56  1  0
 13 57  1  0
 14 58  1  0
 14 59  1  0
 22 60  1  0
 23 61  1  0
 25 62  1  0
 26 63  1  0
 28 64  1  0
 29 65  1  0
 31 66  1  0
 33 67  1  0
 33 68  1  0
 33 69  1  0
 35 70  1  0
 38 71  1  0
 41 72  1  0
 42 73  1  0
M  END
$$$$
[H]C1=C([H])C([H])(F)C([H])([H])C([H])=C1N([H])C(=O)C1(C(=O)N([H])c2c([H])c([H])c(Oc3c([H])c([H])nc4c([H])c(OC([H])([H])C([H])([H])C([H])([H])N5C([H])([H])C([H])([H])C([H])([H])C([H])([H])C5([H])[H])c(OC([H])([H])[H])c([H])c34)c(F)c2[H])C([H])([H])C1([H])[H]
     RDKit          3D

 84 89  0  0  0  0  0  0  0  0999 V2000
    3.8941   -3.7132    0.1913 C   0  0  0  0  0  0  0  0  0  0  0  0
    4.6565   -2.6079   -0.2681 O   0  0  0  0  0  0  0  0  0  0  0  0
    4.0305   -1.4283   -0.6539 C   0  0  0  0  0  0  0  0  0  0  0  0
    2.6597   -1.2972   -0.6016 C   0  0  0  0  0  0  0  0  0  0  0  0
    2.0436   -0.1222   -0.9870 C   0  0  0  0  0  0  0  0  0  0  0  0
    0.6510    0.0367   -0.9451 C   0  0  0  0  0  0  0  0  0  0  0  0
   -0.0755   -1.0256   -0.4996 O   0  0  0  0  0  0  0  0  0  0  0  0
   -1.4492   -1.0402   -0.3255 C   0  0  0  0  0  0  0  0  0  0  0  0
   -2.2606   -1.8743   -1.0649 C   0  0  0  0  0  0  0  0  0  0  0  0
   -3.6423   -1.8715   -0.8692 C   0  0  0  0  0  0  0  0  0  0  0  0
   -4.2526   -1.0654    0.0403 C   0  0  0  0  0  0  0  0  0  0  0  0
   -5.6503   -1.0411    0.3103 N   0  0  0  0  0  0  0  0  0  0  0  0
   -6.4608   -2.1680    0.2347 C   0  0  0  0  0  0  0  0  0  0  0  0
   -5.8498   -3.2675   -0.0680 O   0  0  0  0  0  0  0  0  0  0  0  0
   -7.9176   -2.3168    0.4538 C   0  0  0  0  0  0  0  0  0  0  0  0
   -8.5358   -3.5604   -0.1118 C   0  0  0  0  0  0  0  0  0  0  0  0
   -8.2258   -3.5095    1.3287 C   0  0  0  0  0  0  0  0  0  0  0  0
   -8.8577   -1.1862    0.5085 C   0  0  0  0  0  0  0  0  0  0  0  0
  -10.0295   -1.5183    0.9875 O   0  0  0  0  0  0  0  0  0  0  0  0
   -8.6712    0.1344    0.1256 N   0  0  0  0  0  0  0  0  0  0  0  0
   -9.7018    1.1257    0.2594 C   0  0  0  0  0  0  0  0  0  0  0  0
  -10.1675    1.7824   -0.7844 C   0  0  0  0  0  0  0  0  0  0  0  0
  -11.2276    2.8066   -0.6621 C   0  0  0  0  0  0  0  0  0  0  0  0
  -11.7828    3.0373    0.6810 C   0  0  0  0  0  0  0  0  0  0  0  0
  -13.1708    2.8095    0.6256 F   0  0  0  0  0  0  0  0  0  0  0  0
  -11.1912    2.2557    1.7682 C   0  0  0  0  0  0  0  0  0  0  0  0
  -10.2373    1.3788    1.5761 C   0  0  0  0  0  0  0  0  0  0  0  0
   -3.4356   -0.2282    0.7824 C   0  0  0  0  0  0  0  0  0  0  0  0
   -2.0698   -0.2231    0.5976 C   0  0  0  0  0  0  0  0  0  0  0  0
   -1.3225    0.6137    1.3883 F   0  0  0  0  0  0  0  0  0  0  0  0
    0.0582    1.2154   -1.3358 C   0  0  0  0  0  0  0  0  0  0  0  0
    0.8455    2.2647   -1.7771 C   0  0  0  0  0  0  0  0  0  0  0  0
    2.1789    2.1086   -1.8152 N   0  0  0  0  0  0  0  0  0  0  0  0
    2.7728    0.9564   -1.4354 C   0  0  0  0  0  0  0  0  0  0  0  0
    4.1549    0.8104   -1.4827 C   0  0  0  0  0  0  0  0  0  0  0  0
    4.7873   -0.3669   -1.0977 C   0  0  0  0  0  0  0  0  0  0  0  0
    6.1653   -0.5173   -1.1421 O   0  0  0  0  0  0  0  0  0  0  0  0
    6.9247    0.5946   -1.5969 C   0  0  0  0  0  0  0  0  0  0  0  0
    8.3981    0.2160   -1.5674 C   0  0  0  0  0  0  0  0  0  0  0  0
    8.7652   -0.1374   -0.1628 C   0  0  0  0  0  0  0  0  0  0  0  0
    8.5410    0.9713    0.7124 N   0  0  0  0  0  0  0  0  0  0  0  0
    8.8626    0.5943    2.0908 C   0  0  0  0  0  0  0  0  0  0  0  0
   10.1341    1.2231    2.5590 C   0  0  0  0  0  0  0  0  0  0  0  0
   11.2236    1.2674    1.5088 C   0  0  0  0  0  0  0  0  0  0  0  0
   10.7617    1.8537    0.2168 C   0  0  0  0  0  0  0  0  0  0  0  0
    9.2894    2.1446    0.3223 C   0  0  0  0  0  0  0  0  0  0  0  0
    4.5297   -4.6049    0.2046 H   0  0  0  0  0  0  0  0  0  0  0  0
    3.0368   -3.9207   -0.4537 H   0  0  0  0  0  0  0  0  0  0  0  0
    3.5857   -3.4838    1.2349 H   0  0  0  0  0  0  0  0  0  0  0  0
    2.0594   -2.1200   -0.2574 H   0  0  0  0  0  0  0  0  0  0  0  0
   -1.7910   -2.5214   -1.7915 H   0  0  0  0  0  0  0  0  0  0  0  0
   -4.2011   -2.5275   -1.4890 H   0  0  0  0  0  0  0  0  0  0  0  0
   -5.9930   -0.0843    0.6053 H   0  0  0  0  0  0  0  0  0  0  0  0
   -7.8776   -4.1574   -0.7922 H   0  0  0  0  0  0  0  0  0  0  0  0
   -9.5862   -3.5314   -0.4675 H   0  0  0  0  0  0  0  0  0  0  0  0
   -9.0668   -3.4296    2.0590 H   0  0  0  0  0  0  0  0  0  0  0  0
   -7.4089   -4.1370    1.6985 H   0  0  0  0  0  0  0  0  0  0  0  0
   -7.7902    0.4562   -0.3104 H   0  0  0  0  0  0  0  0  0  0  0  0
   -9.7650    1.5684   -1.7719 H   0  0  0  0  0  0  0  0  0  0  0  0
  -10.7674    3.7837   -1.0343 H   0  0  0  0  0  0  0  0  0  0  0  0
  -12.0168    2.5426   -1.4224 H   0  0  0  0  0  0  0  0  0  0  0  0
  -11.6408    4.1294    0.9469 H   0  0  0  0  0  0  0  0  0  0  0  0
  -11.5771    2.4212    2.8054 H   0  0  0  0  0  0  0  0  0  0  0  0
   -9.8450    0.8363    2.4194 H   0  0  0  0  0  0  0  0  0  0  0  0
   -3.9079    0.4182    1.5091 H   0  0  0  0  0  0  0  0  0  0  0  0
   -0.9995    1.3667   -1.3304 H   0  0  0  0  0  0  0  0  0  0  0  0
    0.3645    3.1827   -2.0801 H   0  0  0  0  0  0  0  0  0  0  0  0
    4.7341    1.6500   -1.8317 H   0  0  0  0  0  0  0  0  0  0  0  0
    6.7902    1.4564   -0.9075 H   0  0  0  0  0  0  0  0  0  0  0  0
    6.6790    0.8981   -2.6163 H   0  0  0  0  0  0  0  0  0  0  0  0
    8.5172   -0.6510   -2.2580 H   0  0  0  0  0  0  0  0  0  0  0  0
    8.9717    1.0419   -1.9999 H   0  0  0  0  0  0  0  0  0  0  0  0
    8.1514   -1.0174    0.1504 H   0  0  0  0  0  0  0  0  0  0  0  0
    9.8226   -0.4865   -0.1718 H   0  0  0  0  0  0  0  0  0  0  0  0
    8.8820   -0.5200    2.1502 H   0  0  0  0  0  0  0  0  0  0  0  0
    8.0335    0.9450    2.7222 H   0  0  0  0  0  0  0  0  0  0  0  0
   10.5337    0.5668    3.3880 H   0  0  0  0  0  0  0  0  0  0  0  0
    9.9539    2.2035    3.0123 H   0  0  0  0  0  0  0  0  0  0  0  0
   11.7159    0.2783    1.3726 H   0  0  0  0  0  0  0  0  0  0  0  0
   12.0186    1.9324    1.9308 H   0  0  0  0  0  0  0  0  0  0  0  0
   10.9303    1.1781   -0.6500 H   0  0  0  0  0  0  0  0  0  0  0  0
   11.3098    2.7776   -0.0117 H   0  0  0  0  0  0  0  0  0  0  0  0
    9.0848    2.9287    1.0867 H   0  0  0  0  0  0  0  0  0  0  0  0
    8.9162    2.5157   -0.6375 H   0  0  0  0  0  0  0  0  0  0  0  0
  1  2  1  0
  2  3  1  0
  3  4  2  0
  4  5  1  0
  5  6  2  0
  6  7  1  0
  7  8  1  0
  8  9  2  0
  9 10  1  0
 10 11  2  0
 11 12  1  0
 12 13  1  0
 13 14  2  0
 13 15  1  0
 15 16  1  0
 16 17  1  0
 15 18  1  0
 18 19  2  0
 18 20  1  0
 20 21  1  0
 21 22  2  0
 22 23  1  0
 23 24  1  0
 24 25  1  0
 24 26  1  0
 26 27  2  0
 11 28  1  0
 28 29  2  0
 29 30  1  0
  6 31  1  0
 31 32  2  0
 32 33  1  0
 33 34  2  0
 34 35  1  0
 35 36  2  0
 36 37  1  0
 37 38  1  0
 38 39  1  0
 39 40  1  0
 40 41  1  0
 41 42  1  0
 42 43  1  0
 43 44  1  0
 44 45  1  0
 45 46  1  0
 36  3  1  0
 46 41  1  0
 34  5  1  0
 29  8  1  0
 17 15  1  0
 27 21  1  0
  1 47  1  0
  1 48  1  0
  1 49  1  0
  4 50  1  0
  9 51  1  0
 10 52  1  0
 12 53  1  0
 16 54  1  0
 16 55  1  0
 17 56  1  0
 17 57  1  0
 20 58  1  0
 22 59  1  0
 23 60  1  0
 23 61  1  0
 24 62  1  0
 26 63  1  0
 27 64  1  0
 28 65  1  0
 31 66  1  0
 32 67  1  0
 35 68  1  0
 38 69  1  0
 38 70  1  0
 39 71  1  0
 39 72  1  0
 40 73  1  0
 40 74  1  0
 42 75  1  0
 42 76  1  0
 43 77  1  0
 43 78  1  0
 44 79  1  0
 44 80  1  0
 45 81  1  0
 45 82  1  0
 46 83  1  0
 46 84  1  0
M  END
$$$$
[H]C1=C([H])[C@@]2(C([H])([H])[H])C(=C([H])C1=O)C([H])([H])C([H])([H])[C@]1([H])[C@]2([H])C([H])([H])C([H])([H])[C@]2(C([H])([H])[H])C(=O)C([H])([H])C([H])([H])[C@]21[H]
     RDKit          3D

 45 48  0  0  0  0  0  0  0  0999 V2000
   -2.5789    1.5508   -0.1318 C   0  0  0  0  0  0  0  0  0  0  0  0
   -2.3523    0.2643    0.6239 C   0  0  2  0  0  0  0  0  0  0  0  0
   -1.5354    0.5025    1.8408 C   0  0  0  0  0  0  0  0  0  0  0  0
   -0.2070    1.0855    1.4039 C   0  0  0  0  0  0  0  0  0  0  0  0
    0.5100    0.1431    0.4994 C   0  0  1  0  0  0  0  0  0  0  0  0
   -0.3062   -0.2682   -0.7212 C   0  0  1  0  0  0  0  0  0  0  0  0
    0.3863   -1.4500   -1.3842 C   0  0  0  0  0  0  0  0  0  0  0  0
    1.8215   -1.2074   -1.6869 C   0  0  0  0  0  0  0  0  0  0  0  0
    2.5386   -0.5945   -0.5296 C   0  0  0  0  0  0  0  0  0  0  0  0
    3.6773   -1.0904   -0.0893 C   0  0  0  0  0  0  0  0  0  0  0  0
    4.3453   -0.4769    1.0291 C   0  0  0  0  0  0  0  0  0  0  0  0
    5.4415   -0.9752    1.4329 O   0  0  0  0  0  0  0  0  0  0  0  0
    3.7700    0.6780    1.6668 C   0  0  0  0  0  0  0  0  0  0  0  0
    2.6260    1.1514    1.2017 C   0  0  0  0  0  0  0  0  0  0  0  0
    1.8733    0.6023    0.0785 C   0  0  2  0  0  0  0  0  0  0  0  0
    1.8076    1.6659   -1.0125 C   0  0  0  0  0  0  0  0  0  0  0  0
   -1.6077   -0.7625   -0.2103 C   0  0  2  0  0  0  0  0  0  0  0  0
   -2.6101   -1.1579   -1.2198 C   0  0  0  0  0  0  0  0  0  0  0  0
   -3.9100   -1.1793   -0.4039 C   0  0  0  0  0  0  0  0  0  0  0  0
   -3.6110   -0.4684    0.8525 C   0  0  0  0  0  0  0  0  0  0  0  0
   -4.2554   -0.4774    1.8640 O   0  0  0  0  0  0  0  0  0  0  0  0
   -2.8989    2.3090    0.6410 H   0  0  0  0  0  0  0  0  0  0  0  0
   -3.3969    1.4984   -0.8581 H   0  0  0  0  0  0  0  0  0  0  0  0
   -1.6765    1.9405   -0.6097 H   0  0  0  0  0  0  0  0  0  0  0  0
   -2.0262    1.1599    2.5886 H   0  0  0  0  0  0  0  0  0  0  0  0
   -1.2937   -0.4787    2.3235 H   0  0  0  0  0  0  0  0  0  0  0  0
   -0.3612    2.0841    0.9429 H   0  0  0  0  0  0  0  0  0  0  0  0
    0.4525    1.2586    2.2829 H   0  0  0  0  0  0  0  0  0  0  0  0
    0.6621   -0.8135    1.0774 H   0  0  0  0  0  0  0  0  0  0  0  0
   -0.4107    0.5733   -1.4385 H   0  0  0  0  0  0  0  0  0  0  0  0
    0.3425   -2.2836   -0.6253 H   0  0  0  0  0  0  0  0  0  0  0  0
   -0.1458   -1.7508   -2.2891 H   0  0  0  0  0  0  0  0  0  0  0  0
    2.0027   -0.6486   -2.6327 H   0  0  0  0  0  0  0  0  0  0  0  0
    2.2919   -2.2184   -1.8648 H   0  0  0  0  0  0  0  0  0  0  0  0
    4.0788   -1.9672   -0.6015 H   0  0  0  0  0  0  0  0  0  0  0  0
    4.2609    1.1547    2.5127 H   0  0  0  0  0  0  0  0  0  0  0  0
    2.2355    2.0209    1.7097 H   0  0  0  0  0  0  0  0  0  0  0  0
    1.4666    1.1932   -1.9401 H   0  0  0  0  0  0  0  0  0  0  0  0
    2.8492    2.0224   -1.1581 H   0  0  0  0  0  0  0  0  0  0  0  0
    1.1864    2.5269   -0.7174 H   0  0  0  0  0  0  0  0  0  0  0  0
   -1.4131   -1.6247    0.4652 H   0  0  0  0  0  0  0  0  0  0  0  0
   -2.6956   -0.4855   -2.0848 H   0  0  0  0  0  0  0  0  0  0  0  0
   -2.3838   -2.1889   -1.5708 H   0  0  0  0  0  0  0  0  0  0  0  0
   -4.2891   -2.2008   -0.2707 H   0  0  0  0  0  0  0  0  0  0  0  0
   -4.6608   -0.6168   -0.9865 H   0  0  0  0  0  0  0  0  0  0  0  0
  2  1  1  6
  2  3  1  0
  3  4  1  0
  4  5  1  0
  5  6  1  0
  6  7  1  0
  7  8  1  0
  8  9  1  0
  9 10  2  0
 10 11  1  0
 11 12  2  0
 11 13  1  0
 13 14  2  0
 14 15  1  0
 15 16  1  6
  6 17  1  0
 17 18  1  0
 18 19  1  0
 19 20  1  0
 20 21  2  0
 17  2  1  0
 20  2  1  0
 15  5  1  0
 15  9  1  0
  1 22  1  0
  1 23  1  0
  1 24  1  0
  3 25  1  0
  3 26  1  0
  4 27  1  0
  4 28  1  0
  5 29  1  1
  6 30  1  6
  7 31  1  0
  7 32  1  0
  8 33  1  0
  8 34  1  0
 10 35  1  0
 13 36  1  0
 14 37  1  0
 16 38  1  0
 16 39  1  0
 16 40  1  0
 17 41  1  1
 18 42  1  0
 18 43  1  0
 19 44  1  0
 19 45  1  0
M  END
$$$$
[H]C1=C(C(=O)[O-])N2C(=O)/C(=C(\[H])c3sc4c([H])c([H])c(Cl)c([H])c4c3[H])[C@@]2([H])S1
     RDKit          3D

 29 32  0  0  0  0  0  0  0  0999 V2000
   -6.4228   -0.3708   -0.7021 O   0  0  0  0  0  0  0  0  0  0  0  0
   -5.7199   -1.1291    0.2339 C   0  0  0  0  0  0  0  0  0  0  0  0
   -6.4085   -1.9510    0.9069 O   0  0  0  0  0  0  0  0  0  0  0  0
   -4.2738   -0.9588    0.4020 C   0  0  0  0  0  0  0  0  0  0  0  0
   -3.6368   -1.6823    1.2866 C   0  0  0  0  0  0  0  0  0  0  0  0
   -1.9143   -1.2003    1.2016 S   0  0  0  0  0  0  0  0  0  0  0  0
   -2.1165   -0.4830   -0.4747 C   0  0  1  0  0  0  0  0  0  0  0  0
   -3.4899   -0.0525   -0.3299 N   0  0  0  0  0  0  0  0  0  0  0  0
   -3.1678    1.0922   -1.0618 C   0  0  0  0  0  0  0  0  0  0  0  0
   -3.6837    2.0003   -1.7719 O   0  0  0  0  0  0  0  0  0  0  0  0
   -1.7443    0.8868   -0.6819 C   0  0  0  0  0  0  0  0  0  0  0  0
   -0.6880    1.6458   -0.6234 C   0  0  0  0  0  0  0  0  0  0  0  0
    0.6085    1.0786   -0.2425 C   0  0  0  0  0  0  0  0  0  0  0  0
    1.8075    1.2724   -0.8906 C   0  0  0  0  0  0  0  0  0  0  0  0
    2.9008    0.6691   -0.3707 C   0  0  0  0  0  0  0  0  0  0  0  0
    4.2168    0.7148   -0.8618 C   0  0  0  0  0  0  0  0  0  0  0  0
    5.2448    0.0561   -0.2564 C   0  0  0  0  0  0  0  0  0  0  0  0
    6.8863    0.1580   -0.9492 Cl  0  0  0  0  0  0  0  0  0  0  0  0
    5.0599   -0.6985    0.8787 C   0  0  0  0  0  0  0  0  0  0  0  0
    3.7839   -0.7621    1.3825 C   0  0  0  0  0  0  0  0  0  0  0  0
    2.7237   -0.0808    0.7546 C   0  0  0  0  0  0  0  0  0  0  0  0
    1.0573    0.0701    1.0567 S   0  0  0  0  0  0  0  0  0  0  0  0
   -3.9973   -2.4326    1.9656 H   0  0  0  0  0  0  0  0  0  0  0  0
   -1.9107   -1.2135   -1.2836 H   0  0  0  0  0  0  0  0  0  0  0  0
   -0.7378    2.6908   -0.8497 H   0  0  0  0  0  0  0  0  0  0  0  0
    1.8127    1.9190   -1.8071 H   0  0  0  0  0  0  0  0  0  0  0  0
    4.4449    1.2958   -1.7669 H   0  0  0  0  0  0  0  0  0  0  0  0
    5.8598   -1.2201    1.3624 H   0  0  0  0  0  0  0  0  0  0  0  0
    3.5052   -1.3145    2.2622 H   0  0  0  0  0  0  0  0  0  0  0  0
  1  2  1  0
  2  3  2  0
  2  4  1  0
  4  5  2  0
  5  6  1  0
  6  7  1  0
  7  8  1  0
  8  9  1  0
  9 10  2  0
  9 11  1  0
 11 12  2  0
 12 13  1  0
 13 14  2  0
 14 15  1  0
 15 16  2  0
 16 17  1  0
 17 18  1  0
 17 19  2  0
 19 20  1  0
 20 21  2  0
 21 22  1  0
  8  4  1  0
 22 13  1  0
 11  7  1  0
 21 15  1  0
  5 23  1  0
  7 24  1  6
 12 25  1  0
 14 26  1  0
 16 27  1  0
 19 28  1  0
 20 29  1  0
M  CHG  1   1  -1
M  END
$$$$
[H]OC([H])([H])[C@@]1(O[H])C([H])([H])[C@@]2([H])O[C@]1(C([H])([H])[H])n1c3c([H])c([H])c([H])c([H])c3c3c4c(c5c6c([H])c([H])c([H])c([H])c6n2c5c31)C(=O)N([H])C4([H])[H]
     RDKit          3D

 54 61  0  0  0  0  0  0  0  0999 V2000
    3.1800    0.8838    1.3878 C   0  0  0  0  0  0  0  0  0  0  0  0
    2.1176    0.2237    0.5774 C   0  0  2  0  0  0  0  0  0  0  0  0
    1.6968   -0.7870    1.4854 O   0  0  0  0  0  0  0  0  0  0  0  0
    1.2511   -1.8639    0.7986 C   0  0  2  0  0  0  0  0  0  0  0  0
    2.0328   -1.9517   -0.4419 C   0  0  0  0  0  0  0  0  0  0  0  0
    2.6347   -0.5714   -0.5849 C   0  0  1  0  0  0  0  0  0  0  0  0
    2.2138   -0.0799   -1.8115 O   0  0  0  0  0  0  0  0  0  0  0  0
    4.1191   -0.7109   -0.6110 C   0  0  0  0  0  0  0  0  0  0  0  0
    4.4589   -1.5975   -1.6334 O   0  0  0  0  0  0  0  0  0  0  0  0
   -0.2014   -1.7853    0.5955 N   0  0  0  0  0  0  0  0  0  0  0  0
   -1.1044   -2.7499    0.6347 C   0  0  0  0  0  0  0  0  0  0  0  0
   -0.9179   -4.0868    0.8734 C   0  0  0  0  0  0  0  0  0  0  0  0
   -2.0299   -4.9199    0.8648 C   0  0  0  0  0  0  0  0  0  0  0  0
   -3.2823   -4.4161    0.6235 C   0  0  0  0  0  0  0  0  0  0  0  0
   -3.4758   -3.0511    0.3794 C   0  0  0  0  0  0  0  0  0  0  0  0
   -2.3768   -2.2421    0.3902 C   0  0  0  0  0  0  0  0  0  0  0  0
   -2.2053   -0.8905    0.1945 C   0  0  0  0  0  0  0  0  0  0  0  0
   -3.0670    0.1511   -0.0975 C   0  0  0  0  0  0  0  0  0  0  0  0
   -4.5001    0.2660   -0.2996 C   0  0  0  0  0  0  0  0  0  0  0  0
   -5.3884   -0.5871   -0.2658 O   0  0  0  0  0  0  0  0  0  0  0  0
   -4.7851    1.6416   -0.5724 N   0  0  0  0  0  0  0  0  0  0  0  0
   -3.5735    2.4248   -0.5610 C   0  0  0  0  0  0  0  0  0  0  0  0
   -2.5314    1.4168   -0.2472 C   0  0  0  0  0  0  0  0  0  0  0  0
   -1.1701    1.6669   -0.1133 C   0  0  0  0  0  0  0  0  0  0  0  0
   -0.3770    2.7657   -0.2198 C   0  0  0  0  0  0  0  0  0  0  0  0
   -0.7006    4.0705   -0.5126 C   0  0  0  0  0  0  0  0  0  0  0  0
    0.3203    5.0230   -0.5829 C   0  0  0  0  0  0  0  0  0  0  0  0
    1.6233    4.6180   -0.3553 C   0  0  0  0  0  0  0  0  0  0  0  0
    1.9232    3.2989   -0.0625 C   0  0  0  0  0  0  0  0  0  0  0  0
    0.9354    2.3466    0.0129 C   0  0  0  0  0  0  0  0  0  0  0  0
    0.9590    1.0103    0.2643 N   0  0  0  0  0  0  0  0  0  0  0  0
   -0.3578    0.6223    0.1746 C   0  0  0  0  0  0  0  0  0  0  0  0
   -0.8544   -0.6533    0.3299 C   0  0  0  0  0  0  0  0  0  0  0  0
    4.0624    1.2462    0.8471 H   0  0  0  0  0  0  0  0  0  0  0  0
    3.5596    0.1949    2.1815 H   0  0  0  0  0  0  0  0  0  0  0  0
    2.7312    1.7230    1.9466 H   0  0  0  0  0  0  0  0  0  0  0  0
    1.4219   -2.7643    1.4120 H   0  0  0  0  0  0  0  0  0  0  0  0
    1.4720   -2.2700   -1.3403 H   0  0  0  0  0  0  0  0  0  0  0  0
    2.8377   -2.7359   -0.3258 H   0  0  0  0  0  0  0  0  0  0  0  0
    2.8799   -0.3390   -2.4928 H   0  0  0  0  0  0  0  0  0  0  0  0
    4.5238   -1.1579    0.3296 H   0  0  0  0  0  0  0  0  0  0  0  0
    4.6358    0.2581   -0.8438 H   0  0  0  0  0  0  0  0  0  0  0  0
    4.7979   -2.4633   -1.2908 H   0  0  0  0  0  0  0  0  0  0  0  0
    0.0592   -4.4684    1.0598 H   0  0  0  0  0  0  0  0  0  0  0  0
   -1.8569   -5.9719    1.0560 H   0  0  0  0  0  0  0  0  0  0  0  0
   -4.1224   -5.0759    0.6219 H   0  0  0  0  0  0  0  0  0  0  0  0
   -4.4721   -2.7398    0.2018 H   0  0  0  0  0  0  0  0  0  0  0  0
   -5.7336    2.0654   -0.7610 H   0  0  0  0  0  0  0  0  0  0  0  0
   -3.6366    3.2333    0.1993 H   0  0  0  0  0  0  0  0  0  0  0  0
   -3.3846    2.8954   -1.5673 H   0  0  0  0  0  0  0  0  0  0  0  0
   -1.7294    4.3700   -0.6881 H   0  0  0  0  0  0  0  0  0  0  0  0
    0.0587    6.0490   -0.8135 H   0  0  0  0  0  0  0  0  0  0  0  0
    2.3774    5.3965   -0.4223 H   0  0  0  0  0  0  0  0  0  0  0  0
    2.9510    3.0689    0.0761 H   0  0  0  0  0  0  0  0  0  0  0  0
  2  1  1  1
  2  3  1  0
  3  4  1  0
  4  5  1  0
  5  6  1  0
  6  7  1  6
  6  8  1  0
  8  9  1  0
  4 10  1  0
 10 11  1  0
 11 12  2  0
 12 13  1  0
 13 14  2  0
 14 15  1  0
 15 16  2  0
 16 17  1  0
 17 18  2  0
 18 19  1  0
 19 20  2  0
 19 21  1  0
 21 22  1  0
 22 23  1  0
 23 24  2  0
 24 25  1  0
 25 26  2  0
 26 27  1  0
 27 28  2  0
 28 29  1  0
 29 30  2  0
 30 31  1  0
 31 32  1  0
 32 33  2  0
  6  2  1  0
 33 10  1  0
 31  2  1  0
 16 11  1  0
 33 17  1  0
 23 18  1  0
 32 24  1  0
 30 25  1  0
  1 34  1  0
  1 35  1  0
  1 36  1  0
  4 37  1  1
  5 38  1  0
  5 39  1  0
  7 40  1  0
  8 41  1  0
  8 42  1  0
  9 43  1  0
 12 44  1  0
 13 45  1  0
 14 46  1  0
 15 47  1  0
 21 48  1  0
 22 49  1  0
 22 50  1  0
 26 51  1  0
 27 52  1  0
 28 53  1  0
 29 54  1  0
M  END
$$$$
[H]OC(=O)c1c([H])c([H])c(-c2sc(N([H])C(=O)c3c([H])c([H])c(OC([H])([H])[H])c([H])c3[H])nc2[H])c(OC([H])([H])c2c([H])c([H])c([H])c([H])c2[H])c1[H]
     RDKit          3D

 53 56  0  0  0  0  0  0  0  0999 V2000
  -10.3334   -0.9807    0.0839 C   0  0  0  0  0  0  0  0  0  0  0  0
   -9.6614    0.1623    0.5910 O   0  0  0  0  0  0  0  0  0  0  0  0
   -8.2759    0.2068    0.4653 C   0  0  0  0  0  0  0  0  0  0  0  0
   -7.6298    1.3010    0.9505 C   0  0  0  0  0  0  0  0  0  0  0  0
   -6.2710    1.4511    0.8811 C   0  0  0  0  0  0  0  0  0  0  0  0
   -5.5148    0.4420    0.2891 C   0  0  0  0  0  0  0  0  0  0  0  0
   -6.1772   -0.6516   -0.1939 C   0  0  0  0  0  0  0  0  0  0  0  0
   -7.5508   -0.8001   -0.1222 C   0  0  0  0  0  0  0  0  0  0  0  0
   -4.0758    0.6395    0.2371 C   0  0  0  0  0  0  0  0  0  0  0  0
   -3.5655    1.6603    0.7823 O   0  0  0  0  0  0  0  0  0  0  0  0
   -3.2685   -0.2987   -0.4141 N   0  0  0  0  0  0  0  0  0  0  0  0
   -1.8363   -0.1138   -0.4727 C   0  0  0  0  0  0  0  0  0  0  0  0
   -0.9589   -0.9128   -1.0496 N   0  0  0  0  0  0  0  0  0  0  0  0
    0.3055   -0.6107   -1.0190 C   0  0  0  0  0  0  0  0  0  0  0  0
    0.6905    0.5245   -0.3911 C   0  0  0  0  0  0  0  0  0  0  0  0
   -0.8560    1.1297    0.1495 S   0  0  0  0  0  0  0  0  0  0  0  0
    1.9959    1.1694   -0.1619 C   0  0  0  0  0  0  0  0  0  0  0  0
    2.0000    2.3763    0.5538 C   0  0  0  0  0  0  0  0  0  0  0  0
    3.1915    3.0116    0.7906 C   0  0  0  0  0  0  0  0  0  0  0  0
    4.4014    2.4960    0.3421 C   0  0  0  0  0  0  0  0  0  0  0  0
    4.3999    1.3178   -0.3572 C   0  0  0  0  0  0  0  0  0  0  0  0
    3.1936    0.6726   -0.5976 C   0  0  0  0  0  0  0  0  0  0  0  0
    3.1678   -0.5118   -1.2993 O   0  0  0  0  0  0  0  0  0  0  0  0
    4.1865   -1.2524   -1.8443 C   0  0  0  0  0  0  0  0  0  0  0  0
    5.1049   -1.7270   -0.7834 C   0  0  0  0  0  0  0  0  0  0  0  0
    4.6046   -1.8665    0.5167 C   0  0  0  0  0  0  0  0  0  0  0  0
    5.3842   -2.2970    1.5387 C   0  0  0  0  0  0  0  0  0  0  0  0
    6.7032   -2.6060    1.2948 C   0  0  0  0  0  0  0  0  0  0  0  0
    7.2087   -2.4721    0.0141 C   0  0  0  0  0  0  0  0  0  0  0  0
    6.4144   -2.0349   -1.0207 C   0  0  0  0  0  0  0  0  0  0  0  0
    5.6613    3.1644    0.5906 C   0  0  0  0  0  0  0  0  0  0  0  0
    6.8399    2.6272    0.1328 O   0  0  0  0  0  0  0  0  0  0  0  0
    5.6801    4.2376    1.2255 O   0  0  0  0  0  0  0  0  0  0  0  0
  -10.2527   -0.9638   -1.0189 H   0  0  0  0  0  0  0  0  0  0  0  0
   -9.8224   -1.8600    0.5345 H   0  0  0  0  0  0  0  0  0  0  0  0
  -11.3828   -0.9838    0.4482 H   0  0  0  0  0  0  0  0  0  0  0  0
   -8.1817    2.1140    1.4213 H   0  0  0  0  0  0  0  0  0  0  0  0
   -5.7846    2.3516    1.2852 H   0  0  0  0  0  0  0  0  0  0  0  0
   -5.6268   -1.4577   -0.6600 H   0  0  0  0  0  0  0  0  0  0  0  0
   -8.0724   -1.6637   -0.5039 H   0  0  0  0  0  0  0  0  0  0  0  0
   -3.6868   -1.1325   -0.8594 H   0  0  0  0  0  0  0  0  0  0  0  0
    1.0406   -1.2918   -1.5092 H   0  0  0  0  0  0  0  0  0  0  0  0
    1.0442    2.7669    0.8980 H   0  0  0  0  0  0  0  0  0  0  0  0
    3.2117    3.9450    1.3424 H   0  0  0  0  0  0  0  0  0  0  0  0
    5.3259    0.8948   -0.7301 H   0  0  0  0  0  0  0  0  0  0  0  0
    3.7640   -2.1883   -2.3121 H   0  0  0  0  0  0  0  0  0  0  0  0
    4.7290   -0.7520   -2.6744 H   0  0  0  0  0  0  0  0  0  0  0  0
    3.5700   -1.6259    0.7134 H   0  0  0  0  0  0  0  0  0  0  0  0
    4.9966   -2.4032    2.5378 H   0  0  0  0  0  0  0  0  0  0  0  0
    7.3431   -2.9503    2.0910 H   0  0  0  0  0  0  0  0  0  0  0  0
    8.2480   -2.7190   -0.1626 H   0  0  0  0  0  0  0  0  0  0  0  0
    6.7954   -1.9267   -2.0203 H   0  0  0  0  0  0  0  0  0  0  0  0
    7.5827    2.3927    0.8025 H   0  0  0  0  0  0  0  0  0  0  0  0
  1  2  1  0
  2  3  1  0
  3  4  2  0
  4  5  1  0
  5  6  2  0
  6  7  1  0
  7  8  2  0
  6  9  1  0
  9 10  2  0
  9 11  1  0
 11 12  1  0
 12 13  2  0
 13 14  1  0
 14 15  2  0
 15 16  1  0
 15 17  1  0
 17 18  2  0
 18 19  1  0
 19 20  2  0
 20 21  1  0
 21 22  2  0
 22 23  1  0
 23 24  1  0
 24 25  1  0
 25 26  2  0
 26 27  1  0
 27 28  2  0
 28 29  1  0
 29 30  2  0
 20 31  1  0
 31 32  1  0
 31 33  2  0
  8  3  1  0
 16 12  1  0
 22 17  1  0
 30 25  1  0
  1 34  1  0
  1 35  1  0
  1 36  1  0
  4 37  1  0
  5 38  1  0
  7 39  1  0
  8 40  1  0
 11 41  1  0
 14 42  1  0
 18 43  1  0
 19 44  1  0
 21 45  1  0
 24 46  1  0
 24 47  1  0
 26 48  1  0
 27 49  1  0
 28 50  1  0
 29 51  1  0
 30 52  1  0
 32 53  1  0
M  END
$$$$
[H]c1nc(C(=O)N([H])[H])c(N([H])c2c([H])c([H])c(C3([H])C([H])([H])C([H])([H])N(C4([H])C([H])([H])C([H])([H])C([H])([H])C4([H])[H])C([H])([H])C3([H])[H])c([H])c2[H])nc1N1C([H])([H])C([H])([H])C([H])([H])[C@@]([H])(N([H])C(=O)N2C([H])([H])C([H])([H])C([H])([H])C2([H])[H])C1([H])[H]
     RDKit          3D

 85 90  0  0  0  0  0  0  0  0999 V2000
   -2.2170   -0.5439   -7.0291 N   0  0  0  0  0  0  0  0  0  0  0  0
   -1.1800   -0.5240   -6.0059 C   0  0  0  0  0  0  0  0  0  0  0  0
   -0.0719   -0.8626   -6.4312 O   0  0  0  0  0  0  0  0  0  0  0  0
   -1.5671   -0.1239   -4.6660 C   0  0  0  0  0  0  0  0  0  0  0  0
   -2.8796    0.2202   -4.4825 N   0  0  0  0  0  0  0  0  0  0  0  0
   -3.3497    0.6122   -3.3043 C   0  0  0  0  0  0  0  0  0  0  0  0
   -2.5358    0.6957   -2.1902 C   0  0  0  0  0  0  0  0  0  0  0  0
   -1.2704    0.3641   -2.3667 N   0  0  0  0  0  0  0  0  0  0  0  0
   -0.7488   -0.0449   -3.5646 C   0  0  0  0  0  0  0  0  0  0  0  0
    0.5969   -0.4291   -3.6669 N   0  0  0  0  0  0  0  0  0  0  0  0
    1.5092   -0.3337   -2.6047 C   0  0  0  0  0  0  0  0  0  0  0  0
    2.5309   -1.2898   -2.5032 C   0  0  0  0  0  0  0  0  0  0  0  0
    3.4893   -1.2542   -1.5212 C   0  0  0  0  0  0  0  0  0  0  0  0
    3.4281   -0.2208   -0.5991 C   0  0  0  0  0  0  0  0  0  0  0  0
    2.4487    0.7420   -0.6530 C   0  0  0  0  0  0  0  0  0  0  0  0
    1.4913    0.6611   -1.6778 C   0  0  0  0  0  0  0  0  0  0  0  0
    4.4621   -0.1752    0.4609 C   0  0  0  0  0  0  0  0  0  0  0  0
    4.3367   -1.4107    1.3117 C   0  0  0  0  0  0  0  0  0  0  0  0
    5.5012   -1.5213    2.2960 C   0  0  0  0  0  0  0  0  0  0  0  0
    6.7625   -1.4343    1.6562 N   0  0  0  0  0  0  0  0  0  0  0  0
    6.7380   -1.1145    0.2772 C   0  0  0  0  0  0  0  0  0  0  0  0
    5.8260    0.0072   -0.1214 C   0  0  0  0  0  0  0  0  0  0  0  0
    7.8243   -0.9677    2.4486 C   0  0  0  0  0  0  0  0  0  0  0  0
    7.7033    0.4347    2.9820 C   0  0  0  0  0  0  0  0  0  0  0  0
    9.1277    1.0021    3.0379 C   0  0  0  0  0  0  0  0  0  0  0  0
    9.9747   -0.2764    2.9712 C   0  0  0  0  0  0  0  0  0  0  0  0
    9.1878   -0.9960    1.8592 C   0  0  0  0  0  0  0  0  0  0  0  0
   -3.0485    1.1148   -0.9254 N   0  0  0  0  0  0  0  0  0  0  0  0
   -2.1638    1.2264    0.2183 C   0  0  0  0  0  0  0  0  0  0  0  0
   -2.6097    0.1311    1.1915 C   0  0  0  0  0  0  0  0  0  0  0  0
   -4.0640    0.3445    1.5605 C   0  0  0  0  0  0  0  0  0  0  0  0
   -4.9443    0.4588    0.3513 C   0  0  2  0  0  0  0  0  0  0  0  0
   -4.4133    1.4507   -0.6586 C   0  0  0  0  0  0  0  0  0  0  0  0
   -6.2826    0.8248    0.7653 N   0  0  0  0  0  0  0  0  0  0  0  0
   -7.3492   -0.0864    0.5615 C   0  0  0  0  0  0  0  0  0  0  0  0
   -7.2002   -1.2114    0.0386 O   0  0  0  0  0  0  0  0  0  0  0  0
   -8.6497    0.3022    0.9722 N   0  0  0  0  0  0  0  0  0  0  0  0
   -9.8691   -0.5101    0.8440 C   0  0  0  0  0  0  0  0  0  0  0  0
  -10.5749   -0.2364    2.1358 C   0  0  0  0  0  0  0  0  0  0  0  0
  -10.0521    1.0859    2.6329 C   0  0  0  0  0  0  0  0  0  0  0  0
   -9.0769    1.5406    1.5828 C   0  0  0  0  0  0  0  0  0  0  0  0
   -2.3793    0.3403   -7.5454 H   0  0  0  0  0  0  0  0  0  0  0  0
   -2.7683   -1.3786   -7.2416 H   0  0  0  0  0  0  0  0  0  0  0  0
   -4.3822    0.8652   -3.2286 H   0  0  0  0  0  0  0  0  0  0  0  0
    0.9836   -0.8132   -4.5495 H   0  0  0  0  0  0  0  0  0  0  0  0
    2.5597   -2.0851   -3.2314 H   0  0  0  0  0  0  0  0  0  0  0  0
    4.2809   -2.0048   -1.4507 H   0  0  0  0  0  0  0  0  0  0  0  0
    2.3964    1.5477    0.0620 H   0  0  0  0  0  0  0  0  0  0  0  0
    0.7670    1.4628   -1.6678 H   0  0  0  0  0  0  0  0  0  0  0  0
    4.2271    0.6897    1.1220 H   0  0  0  0  0  0  0  0  0  0  0  0
    3.4281   -1.2654    1.9618 H   0  0  0  0  0  0  0  0  0  0  0  0
    4.2730   -2.2844    0.6656 H   0  0  0  0  0  0  0  0  0  0  0  0
    5.3583   -0.8254    3.1491 H   0  0  0  0  0  0  0  0  0  0  0  0
    5.4076   -2.5488    2.7454 H   0  0  0  0  0  0  0  0  0  0  0  0
    7.7581   -0.9974   -0.1231 H   0  0  0  0  0  0  0  0  0  0  0  0
    6.3462   -2.0343   -0.2543 H   0  0  0  0  0  0  0  0  0  0  0  0
    5.7619   -0.0097   -1.2397 H   0  0  0  0  0  0  0  0  0  0  0  0
    6.2260    1.0051    0.1406 H   0  0  0  0  0  0  0  0  0  0  0  0
    7.8674   -1.6264    3.3678 H   0  0  0  0  0  0  0  0  0  0  0  0
    7.1065    1.1112    2.3704 H   0  0  0  0  0  0  0  0  0  0  0  0
    7.3359    0.4692    4.0186 H   0  0  0  0  0  0  0  0  0  0  0  0
    9.3584    1.5446    2.0746 H   0  0  0  0  0  0  0  0  0  0  0  0
    9.3195    1.5919    3.9311 H   0  0  0  0  0  0  0  0  0  0  0  0
   11.0060   -0.0812    2.6812 H   0  0  0  0  0  0  0  0  0  0  0  0
    9.8365   -0.7860    3.9349 H   0  0  0  0  0  0  0  0  0  0  0  0
    9.3492   -0.3851    0.9697 H   0  0  0  0  0  0  0  0  0  0  0  0
    9.5750   -2.0269    1.7369 H   0  0  0  0  0  0  0  0  0  0  0  0
   -2.3327    2.2251    0.7208 H   0  0  0  0  0  0  0  0  0  0  0  0
   -1.1303    1.1098   -0.0824 H   0  0  0  0  0  0  0  0  0  0  0  0
   -1.9589    0.0419    2.0579 H   0  0  0  0  0  0  0  0  0  0  0  0
   -2.5712   -0.8174    0.6182 H   0  0  0  0  0  0  0  0  0  0  0  0
   -4.4405   -0.4592    2.2210 H   0  0  0  0  0  0  0  0  0  0  0  0
   -4.1255    1.2892    2.1268 H   0  0  0  0  0  0  0  0  0  0  0  0
   -4.9546   -0.5521   -0.1241 H   0  0  0  0  0  0  0  0  0  0  0  0
   -5.0664    1.6135   -1.5012 H   0  0  0  0  0  0  0  0  0  0  0  0
   -4.3814    2.4402   -0.1084 H   0  0  0  0  0  0  0  0  0  0  0  0
   -6.4167    1.7543    1.2033 H   0  0  0  0  0  0  0  0  0  0  0  0
   -9.6178   -1.5903    0.7758 H   0  0  0  0  0  0  0  0  0  0  0  0
  -10.4110   -0.1299   -0.0196 H   0  0  0  0  0  0  0  0  0  0  0  0
  -11.6646   -0.1271    1.8829 H   0  0  0  0  0  0  0  0  0  0  0  0
  -10.4136   -1.0107    2.9161 H   0  0  0  0  0  0  0  0  0  0  0  0
  -10.8870    1.8287    2.6879 H   0  0  0  0  0  0  0  0  0  0  0  0
   -9.5783    0.9598    3.6398 H   0  0  0  0  0  0  0  0  0  0  0  0
   -8.2402    2.1329    2.0061 H   0  0  0  0  0  0  0  0  0  0  0  0
   -9.6277    2.1645    0.8382 H   0  0  0  0  0  0  0  0  0  0  0  0
  1  2  1  0
  2  3  2  0
  2  4  1  0
  4  5  2  0
  5  6  1  0
  6  7  2  0
  7  8  1  0
  8  9  2  0
  9 10  1  0
 10 11  1  0
 11 12  2  0
 12 13  1  0
 13 14  2  0
 14 15  1  0
 15 16  2  0
 14 17  1  0
 17 18  1  0
 18 19  1  0
 19 20  1  0
 20 21  1  0
 21 22  1  0
 20 23  1  0
 23 24  1  0
 24 25  1  0
 25 26  1  0
 26 27  1  0
  7 28  1  0
 28 29  1  0
 29 30  1  0
 30 31  1  0
 31 32  1  0
 32 33  1  0
 32 34  1  0
 34 35  1  0
 35 36  2  0
 35 37  1  0
 37 38  1  0
 38 39  1  0
 39 40  1  0
 40 41  1  0
  9  4  1  0
 16 11  1  0
 22 17  1  0
 27 23  1  0
 33 28  1  0
 41 37  1  0
  1 42  1  0
  1 43  1  0
  6 44  1  0
 10 45  1  0
 12 46  1  0
 13 47  1  0
 15 48  1  0
 16 49  1  0
 17 50  1  0
 18 51  1  0
 18 52  1  0
 19 53  1  0
 19 54  1  0
 21 55  1  0
 21 56  1  0
 22 57  1  0
 22 58  1  0
 23 59  1  0
 24 60  1  0
 24 61  1  0
 25 62  1  0
 25 63  1  0
 26 64  1  0
 26 65  1  0
 27 66  1  0
 27 67  1  0
 29 68  1  0
 29 69  1  0
 30 70  1  0
 30 71  1  0
 31 72  1  0
 31 73  1  0
 32 74  1  6
 33 75  1  0
 33 76  1  0
 34 77  1  0
 38 78  1  0
 38 79  1  0
 39 80  1  0
 39 81  1  0
 40 82  1  0
 40 83  1  0
 41 84  1  0
 41 85  1  0
M  END
$$$$
[H]O[C@]1([H])C([H])([H])C([H])([H])[C@]2([H])[C@]1(C([H])([H])[H])C([H])([H])C([H])([H])[C@]1([H])[C@]3(C([H])([H])[H])C(=C([H])C(=O)C([H])([H])C3([H])[H])C([H])([H])C([H])([H])[C@@]21[H]
     RDKit          3D

 49 52  0  0  0  0  0  0  0  0999 V2000
    2.3098    1.1665    1.1892 C   0  0  0  0  0  0  0  0  0  0  0  0
    2.3243    0.5419   -0.1819 C   0  0  2  0  0  0  0  0  0  0  0  0
    1.6014    1.3628   -1.1999 C   0  0  0  0  0  0  0  0  0  0  0  0
    0.1551    1.4659   -0.7958 C   0  0  0  0  0  0  0  0  0  0  0  0
   -0.4997    0.1591   -0.5151 C   0  0  1  0  0  0  0  0  0  0  0  0
    0.3112   -0.7403    0.3974 C   0  0  1  0  0  0  0  0  0  0  0  0
   -0.3517   -2.0998    0.4456 C   0  0  0  0  0  0  0  0  0  0  0  0
   -1.7931   -2.0250    0.8334 C   0  0  0  0  0  0  0  0  0  0  0  0
   -2.5364   -0.9423    0.1584 C   0  0  0  0  0  0  0  0  0  0  0  0
   -3.7648   -1.1937   -0.2733 C   0  0  0  0  0  0  0  0  0  0  0  0
   -4.5558   -0.1779   -0.9459 C   0  0  0  0  0  0  0  0  0  0  0  0
   -5.5635   -0.5108   -1.6098 O   0  0  0  0  0  0  0  0  0  0  0  0
   -4.1079    1.2429   -0.8018 C   0  0  0  0  0  0  0  0  0  0  0  0
   -2.6148    1.2500   -1.0177 C   0  0  0  0  0  0  0  0  0  0  0  0
   -1.8888    0.3932   -0.0173 C   0  0  2  0  0  0  0  0  0  0  0  0
   -1.9056    1.0675    1.3341 C   0  0  0  0  0  0  0  0  0  0  0  0
    1.6554   -0.8197   -0.1970 C   0  0  2  0  0  0  0  0  0  0  0  0
    2.6538   -1.6901    0.4377 C   0  0  0  0  0  0  0  0  0  0  0  0
    3.8967   -1.2976   -0.3651 C   0  0  0  0  0  0  0  0  0  0  0  0
    3.7334    0.1942   -0.5484 C   0  0  1  0  0  0  0  0  0  0  0  0
    4.0709    0.6044   -1.8353 O   0  0  0  0  0  0  0  0  0  0  0  0
    3.3493    1.5287    1.4328 H   0  0  0  0  0  0  0  0  0  0  0  0
    2.0531    0.4567    1.9903 H   0  0  0  0  0  0  0  0  0  0  0  0
    1.6815    2.0809    1.2037 H   0  0  0  0  0  0  0  0  0  0  0  0
    2.0085    2.3941   -1.2492 H   0  0  0  0  0  0  0  0  0  0  0  0
    1.6689    0.8261   -2.1725 H   0  0  0  0  0  0  0  0  0  0  0  0
   -0.3814    1.9135   -1.6840 H   0  0  0  0  0  0  0  0  0  0  0  0
    0.0308    2.2113    0.0131 H   0  0  0  0  0  0  0  0  0  0  0  0
   -0.5848   -0.3912   -1.4862 H   0  0  0  0  0  0  0  0  0  0  0  0
    0.2568   -0.3168    1.4064 H   0  0  0  0  0  0  0  0  0  0  0  0
   -0.1605   -2.6634   -0.4712 H   0  0  0  0  0  0  0  0  0  0  0  0
    0.1759   -2.6628    1.2688 H   0  0  0  0  0  0  0  0  0  0  0  0
   -2.2546   -3.0206    0.5832 H   0  0  0  0  0  0  0  0  0  0  0  0
   -1.9139   -1.9460    1.9501 H   0  0  0  0  0  0  0  0  0  0  0  0
   -4.1826   -2.1748   -0.1200 H   0  0  0  0  0  0  0  0  0  0  0  0
   -4.3888    1.5766    0.2155 H   0  0  0  0  0  0  0  0  0  0  0  0
   -4.5705    1.8946   -1.5576 H   0  0  0  0  0  0  0  0  0  0  0  0
   -2.4384    0.8809   -2.0492 H   0  0  0  0  0  0  0  0  0  0  0  0
   -2.2702    2.2900   -0.9010 H   0  0  0  0  0  0  0  0  0  0  0  0
   -2.5967    1.9380    1.3158 H   0  0  0  0  0  0  0  0  0  0  0  0
   -2.2745    0.3972    2.1436 H   0  0  0  0  0  0  0  0  0  0  0  0
   -0.9191    1.4304    1.6500 H   0  0  0  0  0  0  0  0  0  0  0  0
    1.5565   -1.1000   -1.2712 H   0  0  0  0  0  0  0  0  0  0  0  0
    2.4450   -2.7733    0.3313 H   0  0  0  0  0  0  0  0  0  0  0  0
    2.8555   -1.4109    1.4949 H   0  0  0  0  0  0  0  0  0  0  0  0
    4.8181   -1.5879    0.1300 H   0  0  0  0  0  0  0  0  0  0  0  0
    3.7696   -1.7690   -1.3750 H   0  0  0  0  0  0  0  0  0  0  0  0
    4.4514    0.6775    0.1739 H   0  0  0  0  0  0  0  0  0  0  0  0
    4.6853    1.3688   -1.7993 H   0  0  0  0  0  0  0  0  0  0  0  0
  2  1  1  1
  2  3  1  0
  3  4  1  0
  4  5  1  0
  5  6  1  0
  6  7  1  0
  7  8  1  0
  8  9  1  0
  9 10  2  0
 10 11  1  0
 11 12  2  0
 11 13  1  0
 13 14  1  0
 14 15  1  0
 15 16  1  1
  6 17  1  0
 17 18  1  0
 18 19  1  0
 19 20  1  0
 20 21  1  0
 17  2  1  0
 20  2  1  0
 15  5  1  0
 15  9  1  0
  1 22  1  0
  1 23  1  0
  1 24  1  0
  3 25  1  0
  3 26  1  0
  4 27  1  0
  4 28  1  0
  5 29  1  6
  6 30  1  1
  7 31  1  0
  7 32  1  0
  8 33  1  0
  8 34  1  0
 10 35  1  0
 13 36  1  0
 13 37  1  0
 14 38  1  0
 14 39  1  0
 16 40  1  0
 16 41  1  0
 16 42  1  0
 17 43  1  6
 18 44  1  0
 18 45  1  0
 19 46  1  0
 19 47  1  0
 20 48  1  1
 21 49  1  0
M  END
$$$$
[H]N=C(N([H])[H])N([H])C([H])([H])C([H])([H])C([H])([H])[C@@]([H])(C(=O)c1nc2c([H])c([H])c([H])c([H])c2s1)N([H])C(=O)[C@@]([H])(N([H])C(=O)[C@@]1([H])N(C(=O)OC([H])([H])c2c([H])c([H])c([H])c([H])c2[H])C([H])([H])C([H])([H])C1([H])[H])C([H])([H])C([H])([H])C([H])([H])N([H])C(=N[H])N([H])[H]
     RDKit          3D

 90 93  0  0  0  0  0  0  0  0999 V2000
   -1.5696    7.3959    0.4737 N   0  0  0  0  0  0  0  0  0  0  0  0
   -0.6811    6.9439   -0.5257 C   0  0  0  0  0  0  0  0  0  0  0  0
   -0.1811    7.7196   -1.4074 N   0  0  0  0  0  0  0  0  0  0  0  0
   -0.3469    5.5429   -0.5322 N   0  0  0  0  0  0  0  0  0  0  0  0
   -0.2216    4.7763    0.7158 C   0  0  0  0  0  0  0  0  0  0  0  0
    0.0776    3.3446    0.2754 C   0  0  0  0  0  0  0  0  0  0  0  0
    0.2258    2.3835    1.4062 C   0  0  0  0  0  0  0  0  0  0  0  0
    0.5117    0.9923    0.9301 C   0  0  2  0  0  0  0  0  0  0  0  0
    1.6973    0.8227    0.1631 N   0  0  0  0  0  0  0  0  0  0  0  0
    2.7056   -0.1334    0.3097 C   0  0  0  0  0  0  0  0  0  0  0  0
    2.5981   -0.9837    1.2285 O   0  0  0  0  0  0  0  0  0  0  0  0
    3.9065   -0.1986   -0.5727 C   0  0  2  0  0  0  0  0  0  0  0  0
    3.5425   -0.0921   -2.0352 C   0  0  0  0  0  0  0  0  0  0  0  0
    3.7891   -1.4327   -2.6506 C   0  0  0  0  0  0  0  0  0  0  0  0
    4.1440   -2.3320   -1.4882 C   0  0  0  0  0  0  0  0  0  0  0  0
    4.6339   -1.4284   -0.4729 N   0  0  0  0  0  0  0  0  0  0  0  0
    5.6627   -1.7307    0.4553 C   0  0  0  0  0  0  0  0  0  0  0  0
    5.9850   -0.8457    1.2923 O   0  0  0  0  0  0  0  0  0  0  0  0
    6.2960   -2.9479    0.4507 O   0  0  0  0  0  0  0  0  0  0  0  0
    7.3125   -3.3266    1.3247 C   0  0  0  0  0  0  0  0  0  0  0  0
    6.9098   -3.3083    2.7450 C   0  0  0  0  0  0  0  0  0  0  0  0
    7.3795   -2.3100    3.5778 C   0  0  0  0  0  0  0  0  0  0  0  0
    6.9798   -2.3075    4.8945 C   0  0  0  0  0  0  0  0  0  0  0  0
    6.1305   -3.2674    5.4010 C   0  0  0  0  0  0  0  0  0  0  0  0
    5.6741   -4.2583    4.5440 C   0  0  0  0  0  0  0  0  0  0  0  0
    6.0607   -4.2724    3.2405 C   0  0  0  0  0  0  0  0  0  0  0  0
   -0.6353    0.3724    0.1757 C   0  0  0  0  0  0  0  0  0  0  0  0
   -0.3415   -0.6308   -0.5434 O   0  0  0  0  0  0  0  0  0  0  0  0
   -1.9509    0.8192    0.2185 N   0  0  0  0  0  0  0  0  0  0  0  0
   -3.0018    0.1327   -0.5393 C   0  0  1  0  0  0  0  0  0  0  0  0
   -4.2565    0.0789    0.2383 C   0  0  0  0  0  0  0  0  0  0  0  0
   -4.0810   -0.6287    1.5942 C   0  0  0  0  0  0  0  0  0  0  0  0
   -3.6146   -2.0409    1.3911 C   0  0  0  0  0  0  0  0  0  0  0  0
   -3.4538   -2.7112    2.6796 N   0  0  0  0  0  0  0  0  0  0  0  0
   -2.9856   -4.0658    2.6723 C   0  0  0  0  0  0  0  0  0  0  0  0
   -3.8353   -5.1378    2.2943 N   0  0  0  0  0  0  0  0  0  0  0  0
   -1.7689   -4.3436    3.0114 N   0  0  0  0  0  0  0  0  0  0  0  0
   -3.1358    0.7701   -1.8417 C   0  0  0  0  0  0  0  0  0  0  0  0
   -2.1345    1.4862   -2.2546 O   0  0  0  0  0  0  0  0  0  0  0  0
   -4.2917    0.6817   -2.7327 C   0  0  0  0  0  0  0  0  0  0  0  0
   -4.3740    1.2035   -3.9494 N   0  0  0  0  0  0  0  0  0  0  0  0
   -5.4467    1.1236   -4.6498 C   0  0  0  0  0  0  0  0  0  0  0  0
   -5.6333    1.6472   -5.9425 C   0  0  0  0  0  0  0  0  0  0  0  0
   -6.8262    1.5055   -6.5881 C   0  0  0  0  0  0  0  0  0  0  0  0
   -7.9075    0.8564   -6.0373 C   0  0  0  0  0  0  0  0  0  0  0  0
   -7.7430    0.3359   -4.7711 C   0  0  0  0  0  0  0  0  0  0  0  0
   -6.5203    0.4730   -4.0932 C   0  0  0  0  0  0  0  0  0  0  0  0
   -5.8702    0.0272   -2.5819 S   0  0  0  0  0  0  0  0  0  0  0  0
   -2.4232    6.8845    0.7759 H   0  0  0  0  0  0  0  0  0  0  0  0
   -1.3911    8.3022    0.9645 H   0  0  0  0  0  0  0  0  0  0  0  0
   -0.3603    8.7284   -1.4921 H   0  0  0  0  0  0  0  0  0  0  0  0
   -0.2041    5.1222   -1.4761 H   0  0  0  0  0  0  0  0  0  0  0  0
    0.6671    5.1418    1.2505 H   0  0  0  0  0  0  0  0  0  0  0  0
   -1.1448    4.7732    1.2903 H   0  0  0  0  0  0  0  0  0  0  0  0
    1.0812    3.4107   -0.2362 H   0  0  0  0  0  0  0  0  0  0  0  0
   -0.6794    3.0139   -0.4292 H   0  0  0  0  0  0  0  0  0  0  0  0
   -0.7129    2.3549    2.0194 H   0  0  0  0  0  0  0  0  0  0  0  0
    1.0384    2.7344    2.0741 H   0  0  0  0  0  0  0  0  0  0  0  0
    0.6367    0.3108    1.8316 H   0  0  0  0  0  0  0  0  0  0  0  0
    1.8286    1.5265   -0.6351 H   0  0  0  0  0  0  0  0  0  0  0  0
    4.5479    0.6873   -0.3102 H   0  0  0  0  0  0  0  0  0  0  0  0
    4.1190    0.7298   -2.5313 H   0  0  0  0  0  0  0  0  0  0  0  0
    2.4403    0.1033   -2.1238 H   0  0  0  0  0  0  0  0  0  0  0  0
    2.9102   -1.8247   -3.2121 H   0  0  0  0  0  0  0  0  0  0  0  0
    4.6173   -1.3483   -3.3751 H   0  0  0  0  0  0  0  0  0  0  0  0
    3.2567   -2.8967   -1.2031 H   0  0  0  0  0  0  0  0  0  0  0  0
    4.9535   -3.0036   -1.8713 H   0  0  0  0  0  0  0  0  0  0  0  0
    8.2010   -2.6456    1.1880 H   0  0  0  0  0  0  0  0  0  0  0  0
    7.6756   -4.3454    1.0248 H   0  0  0  0  0  0  0  0  0  0  0  0
    8.0501   -1.5288    3.2389 H   0  0  0  0  0  0  0  0  0  0  0  0
    7.3313   -1.5275    5.5846 H   0  0  0  0  0  0  0  0  0  0  0  0
    5.8308   -3.2484    6.4277 H   0  0  0  0  0  0  0  0  0  0  0  0
    5.0092   -5.0115    4.9312 H   0  0  0  0  0  0  0  0  0  0  0  0
    5.7180   -5.0464    2.5341 H   0  0  0  0  0  0  0  0  0  0  0  0
   -2.2209    1.6458    0.7879 H   0  0  0  0  0  0  0  0  0  0  0  0
   -2.6045   -0.9072   -0.6852 H   0  0  0  0  0  0  0  0  0  0  0  0
   -4.7148    1.0513    0.4358 H   0  0  0  0  0  0  0  0  0  0  0  0
   -5.0214   -0.5605   -0.2726 H   0  0  0  0  0  0  0  0  0  0  0  0
   -5.0830   -0.6299    2.0647 H   0  0  0  0  0  0  0  0  0  0  0  0
   -3.3904   -0.0518    2.2337 H   0  0  0  0  0  0  0  0  0  0  0  0
   -4.3311   -2.6136    0.7879 H   0  0  0  0  0  0  0  0  0  0  0  0
   -2.5922   -2.0869    0.9247 H   0  0  0  0  0  0  0  0  0  0  0  0
   -3.6548   -2.2720    3.5948 H   0  0  0  0  0  0  0  0  0  0  0  0
   -4.8623   -5.0032    2.2748 H   0  0  0  0  0  0  0  0  0  0  0  0
   -3.4295   -6.0622    2.0337 H   0  0  0  0  0  0  0  0  0  0  0  0
   -1.4269   -5.3290    3.0063 H   0  0  0  0  0  0  0  0  0  0  0  0
   -4.8212    2.1751   -6.4543 H   0  0  0  0  0  0  0  0  0  0  0  0
   -6.9192    1.9405   -7.6054 H   0  0  0  0  0  0  0  0  0  0  0  0
   -8.8187    0.7861   -6.6004 H   0  0  0  0  0  0  0  0  0  0  0  0
   -8.5203   -0.1803   -4.2604 H   0  0  0  0  0  0  0  0  0  0  0  0
  1  2  1  0
  2  3  2  3
  2  4  1  0
  4  5  1  0
  5  6  1  0
  6  7  1  0
  7  8  1  0
  8  9  1  0
  9 10  1  0
 10 11  2  0
 10 12  1  0
 12 13  1  0
 13 14  1  0
 14 15  1  0
 15 16  1  0
 16 17  1  0
 17 18  2  0
 17 19  1  0
 19 20  1  0
 20 21  1  0
 21 22  2  0
 22 23  1  0
 23 24  2  0
 24 25  1  0
 25 26  2  0
  8 27  1  0
 27 28  2  0
 27 29  1  0
 29 30  1  0
 30 31  1  0
 31 32  1  0
 32 33  1  0
 33 34  1  0
 34 35  1  0
 35 36  1  0
 35 37  2  3
 30 38  1  0
 38 39  2  0
 38 40  1  0
 40 41  2  0
 41 42  1  0
 42 43  2  0
 43 44  1  0
 44 45  2  0
 45 46  1  0
 46 47  2  0
 47 48  1  0
 16 12  1  0
 26 21  1  0
 48 40  1  0
 47 42  1  0
  1 49  1  0
  1 50  1  0
  3 51  1  0
  4 52  1  0
  5 53  1  0
  5 54  1  0
  6 55  1  0
  6 56  1  0
  7 57  1  0
  7 58  1  0
  8 59  1  1
  9 60  1  0
 12 61  1  1
 13 62  1  0
 13 63  1  0
 14 64  1  0
 14 65  1  0
 15 66  1  0
 15 67  1  0
 20 68  1  0
 20 69  1  0
 22 70  1  0
 23 71  1  0
 24 72  1  0
 25 73  1  0
 26 74  1  0
 29 75  1  0
 30 76  1  6
 31 77  1  0
 31 78  1  0
 32 79  1  0
 32 80  1  0
 33 81  1  0
 33 82  1  0
 34 83  1  0
 36 84  1  0
 36 85  1  0
 37 86  1  0
 43 87  1  0
 44 88  1  0
 45 89  1  0
 46 90  1  0
M  END
$$$$
[H]c1c([H])c(S(=O)(=O)N([H])C(=O)N2C([H])([H])C([H])([H])N(c3c([H])c([H])c([N+](=O)[O-])c([H])c3[H])C([H])([H])C2([H])[H])c([H])c([H])c1Cl
     RDKit          3D

 45 47  0  0  0  0  0  0  0  0999 V2000
   -8.1127   -1.2478    2.3133 O   0  0  0  0  0  0  0  0  0  0  0  0
   -7.7804   -0.4116    1.2963 N   0  0  0  0  0  0  0  0  0  0  0  0
   -8.6824    0.1779    0.6739 O   0  0  0  0  0  0  0  0  0  0  0  0
   -6.4409   -0.2004    0.9349 C   0  0  0  0  0  0  0  0  0  0  0  0
   -6.1228    0.6474   -0.0944 C   0  0  0  0  0  0  0  0  0  0  0  0
   -4.7894    0.8577   -0.4588 C   0  0  0  0  0  0  0  0  0  0  0  0
   -3.7893    0.2171    0.2113 C   0  0  0  0  0  0  0  0  0  0  0  0
   -4.1382   -0.6388    1.2539 C   0  0  0  0  0  0  0  0  0  0  0  0
   -5.4445   -0.8590    1.6276 C   0  0  0  0  0  0  0  0  0  0  0  0
   -2.4359    0.3796   -0.1201 N   0  0  0  0  0  0  0  0  0  0  0  0
   -1.4293   -0.1268    0.7888 C   0  0  0  0  0  0  0  0  0  0  0  0
   -0.0639    0.3652    0.3123 C   0  0  0  0  0  0  0  0  0  0  0  0
    0.1570    0.0425   -1.0646 N   0  0  0  0  0  0  0  0  0  0  0  0
   -0.9301    0.2501   -1.9975 C   0  0  0  0  0  0  0  0  0  0  0  0
   -2.0543    1.0252   -1.3460 C   0  0  0  0  0  0  0  0  0  0  0  0
    1.3655   -0.4606   -1.5456 C   0  0  0  0  0  0  0  0  0  0  0  0
    1.4531   -0.7219   -2.8069 O   0  0  0  0  0  0  0  0  0  0  0  0
    2.4709   -0.6856   -0.7014 N   0  0  0  0  0  0  0  0  0  0  0  0
    3.9759   -1.3175   -1.2815 S   0  0  0  0  0  0  0  0  0  0  0  0
    4.0963   -1.1981   -2.7714 O   0  0  0  0  0  0  0  0  0  0  0  0
    3.9834   -2.7958   -0.9358 O   0  0  0  0  0  0  0  0  0  0  0  0
    5.2616   -0.4884   -0.4427 C   0  0  0  0  0  0  0  0  0  0  0  0
    5.7656   -0.9503    0.7568 C   0  0  0  0  0  0  0  0  0  0  0  0
    6.7831   -0.3116    1.4233 C   0  0  0  0  0  0  0  0  0  0  0  0
    7.3505    0.8391    0.9075 C   0  0  0  0  0  0  0  0  0  0  0  0
    8.6592    1.6573    1.7704 Cl  0  0  0  0  0  0  0  0  0  0  0  0
    6.8643    1.3143   -0.2829 C   0  0  0  0  0  0  0  0  0  0  0  0
    5.8493    0.6692   -0.9386 C   0  0  0  0  0  0  0  0  0  0  0  0
   -6.8962    1.1630   -0.6369 H   0  0  0  0  0  0  0  0  0  0  0  0
   -4.5612    1.5274   -1.2620 H   0  0  0  0  0  0  0  0  0  0  0  0
   -3.3385   -1.1430    1.7836 H   0  0  0  0  0  0  0  0  0  0  0  0
   -5.7395   -1.5177    2.4305 H   0  0  0  0  0  0  0  0  0  0  0  0
   -1.6213    0.3765    1.7639 H   0  0  0  0  0  0  0  0  0  0  0  0
   -1.4613   -1.2125    0.9263 H   0  0  0  0  0  0  0  0  0  0  0  0
   -0.1024    1.4795    0.4781 H   0  0  0  0  0  0  0  0  0  0  0  0
    0.6600   -0.0432    1.0236 H   0  0  0  0  0  0  0  0  0  0  0  0
   -0.6004    0.7905   -2.9138 H   0  0  0  0  0  0  0  0  0  0  0  0
   -1.2680   -0.7658   -2.3127 H   0  0  0  0  0  0  0  0  0  0  0  0
   -2.8593    1.0854   -2.1009 H   0  0  0  0  0  0  0  0  0  0  0  0
   -1.6424    2.0329   -1.0922 H   0  0  0  0  0  0  0  0  0  0  0  0
    2.4051   -0.4714    0.2996 H   0  0  0  0  0  0  0  0  0  0  0  0
    5.3229   -1.8548    1.1621 H   0  0  0  0  0  0  0  0  0  0  0  0
    7.1656   -0.6962    2.3731 H   0  0  0  0  0  0  0  0  0  0  0  0
    7.2811    2.2027   -0.7140 H   0  0  0  0  0  0  0  0  0  0  0  0
    5.4342    1.0182   -1.8878 H   0  0  0  0  0  0  0  0  0  0  0  0
  1  2  1  0
  2  3  2  0
  2  4  1  0
  4  5  2  0
  5  6  1  0
  6  7  2  0
  7  8  1  0
  8  9  2  0
  7 10  1  0
 10 11  1  0
 11 12  1  0
 12 13  1  0
 13 14  1  0
 14 15  1  0
 13 16  1  0
 16 17  2  0
 16 18  1  0
 18 19  1  0
 19 20  2  0
 19 21  2  0
 19 22  1  0
 22 23  2  0
 23 24  1  0
 24 25  2  0
 25 26  1  0
 25 27  1  0
 27 28  2  0
  9  4  1  0
 15 10  1  0
 28 22  1  0
  5 29  1  0
  6 30  1  0
  8 31  1  0
  9 32  1  0
 11 33  1  0
 11 34  1  0
 12 35  1  0
 12 36  1  0
 14 37  1  0
 14 38  1  0
 15 39  1  0
 15 40  1  0
 18 41  1  0
 23 42  1  0
 24 43  1  0
 27 44  1  0
 28 45  1  0
M  CHG  2   1  -1   2   1
M  END
$$$$
[H]c1c([H])c(N([H])c2nc([H])c3c(C(=O)N([H])[H])nn(C([H])([H])[H])c3n2)c([H])c([H])c1Cl
     RDKit          3D

 32 34  0  0  0  0  0  0  0  0999 V2000
   -2.2079    3.9005   -0.1172 C   0  0  0  0  0  0  0  0  0  0  0  0
   -2.3819    2.5810    0.4480 N   0  0  0  0  0  0  0  0  0  0  0  0
   -3.3786    2.1349    1.1870 N   0  0  0  0  0  0  0  0  0  0  0  0
   -3.1856    0.8464    1.5270 C   0  0  0  0  0  0  0  0  0  0  0  0
   -4.0704    0.0161    2.3357 C   0  0  0  0  0  0  0  0  0  0  0  0
   -3.8316   -1.3264    2.6679 N   0  0  0  0  0  0  0  0  0  0  0  0
   -5.1372    0.5831    2.7598 O   0  0  0  0  0  0  0  0  0  0  0  0
   -1.9843    0.5081    0.9440 C   0  0  0  0  0  0  0  0  0  0  0  0
   -1.2247   -0.6448    0.9052 C   0  0  0  0  0  0  0  0  0  0  0  0
   -0.0621   -0.6677    0.2338 N   0  0  0  0  0  0  0  0  0  0  0  0
    0.4505    0.3697   -0.4303 C   0  0  0  0  0  0  0  0  0  0  0  0
    1.6711    0.3721   -1.1464 N   0  0  0  0  0  0  0  0  0  0  0  0
    2.6030   -0.6498   -1.3183 C   0  0  0  0  0  0  0  0  0  0  0  0
    2.6582   -1.7129   -0.4496 C   0  0  0  0  0  0  0  0  0  0  0  0
    3.5765   -2.7373   -0.6499 C   0  0  0  0  0  0  0  0  0  0  0  0
    4.4138   -2.6623   -1.7188 C   0  0  0  0  0  0  0  0  0  0  0  0
    5.5689   -3.9460   -1.9753 Cl  0  0  0  0  0  0  0  0  0  0  0  0
    4.3819   -1.6115   -2.6035 C   0  0  0  0  0  0  0  0  0  0  0  0
    3.4861   -0.6066   -2.4136 C   0  0  0  0  0  0  0  0  0  0  0  0
   -0.3010    1.5189   -0.3948 N   0  0  0  0  0  0  0  0  0  0  0  0
   -1.4628    1.5867    0.2603 C   0  0  0  0  0  0  0  0  0  0  0  0
   -1.4009    4.4636    0.4180 H   0  0  0  0  0  0  0  0  0  0  0  0
   -3.1406    4.4821    0.0742 H   0  0  0  0  0  0  0  0  0  0  0  0
   -2.0252    3.8798   -1.2086 H   0  0  0  0  0  0  0  0  0  0  0  0
   -3.3820   -1.5612    3.5798 H   0  0  0  0  0  0  0  0  0  0  0  0
   -4.0754   -2.1370    2.0563 H   0  0  0  0  0  0  0  0  0  0  0  0
   -1.6095   -1.5103    1.4342 H   0  0  0  0  0  0  0  0  0  0  0  0
    1.9213    1.3001   -1.6279 H   0  0  0  0  0  0  0  0  0  0  0  0
    2.0318   -1.8219    0.4244 H   0  0  0  0  0  0  0  0  0  0  0  0
    3.5942   -3.5747    0.0643 H   0  0  0  0  0  0  0  0  0  0  0  0
    5.0910   -1.6054   -3.4577 H   0  0  0  0  0  0  0  0  0  0  0  0
    3.4135    0.2327   -3.0644 H   0  0  0  0  0  0  0  0  0  0  0  0
  1  2  1  0
  2  3  1  0
  3  4  2  0
  4  5  1  0
  5  6  1  0
  5  7  2  0
  4  8  1  0
  8  9  2  0
  9 10  1  0
 10 11  2  0
 11 12  1  0
 12 13  1  0
 13 14  2  0
 14 15  1  0
 15 16  2  0
 16 17  1  0
 16 18  1  0
 18 19  2  0
 11 20  1  0
 20 21  2  0
 21  2  1  0
 21  8  1  0
 19 13  1  0
  1 22  1  0
  1 23  1  0
  1 24  1  0
  6 25  1  0
  6 26  1  0
  9 27  1  0
 12 28  1  0
 14 29  1  0
 15 30  1  0
 18 31  1  0
 19 32  1  0
M  END
$$$$
[H]c1nc(OC([H])([H])c2c(-c3c([H])c([H])c([H])c([H])c3[H])noc2C([H])([H])[H])c([H])c([H])c1C(=O)N1C([H])([H])C([H])([H])C([H])([H])C1([H])[H]
     RDKit          3D

 48 51  0  0  0  0  0  0  0  0999 V2000
   -3.5933    4.0617   -0.6002 C   0  0  0  0  0  0  0  0  0  0  0  0
   -4.0129    2.6875   -0.8897 C   0  0  0  0  0  0  0  0  0  0  0  0
   -4.8644    2.2853   -1.8361 O   0  0  0  0  0  0  0  0  0  0  0  0
   -5.0207    0.9997   -1.8154 N   0  0  0  0  0  0  0  0  0  0  0  0
   -4.2412    0.4739   -0.8108 C   0  0  0  0  0  0  0  0  0  0  0  0
   -3.6069    1.5429   -0.2441 C   0  0  0  0  0  0  0  0  0  0  0  0
   -2.7124    1.5024    1.0204 C   0  0  0  0  0  0  0  0  0  0  0  0
   -1.5061    1.1663    0.7003 O   0  0  0  0  0  0  0  0  0  0  0  0
   -0.2508    0.8224    0.4442 C   0  0  0  0  0  0  0  0  0  0  0  0
    0.0892    0.6497   -0.9272 C   0  0  0  0  0  0  0  0  0  0  0  0
    1.3300    0.3008   -1.2726 C   0  0  0  0  0  0  0  0  0  0  0  0
    2.3595    0.0870   -0.3289 C   0  0  0  0  0  0  0  0  0  0  0  0
    1.9933    0.2628    0.9824 C   0  0  0  0  0  0  0  0  0  0  0  0
    0.7407    0.6157    1.2860 N   0  0  0  0  0  0  0  0  0  0  0  0
    3.5934   -0.4152   -0.8305 C   0  0  0  0  0  0  0  0  0  0  0  0
    3.4911   -1.0554   -2.0363 O   0  0  0  0  0  0  0  0  0  0  0  0
    4.9143   -0.4194   -0.4237 N   0  0  0  0  0  0  0  0  0  0  0  0
    5.5640    0.0523    0.7723 C   0  0  0  0  0  0  0  0  0  0  0  0
    7.0101   -0.4278    0.7105 C   0  0  0  0  0  0  0  0  0  0  0  0
    6.9846   -1.4525   -0.3761 C   0  0  0  0  0  0  0  0  0  0  0  0
    6.0121   -0.8462   -1.3289 C   0  0  0  0  0  0  0  0  0  0  0  0
   -4.3993   -0.8970   -0.2817 C   0  0  0  0  0  0  0  0  0  0  0  0
   -3.5310   -1.8287   -0.0182 C   0  0  0  0  0  0  0  0  0  0  0  0
   -3.9052   -3.0420    0.6016 C   0  0  0  0  0  0  0  0  0  0  0  0
   -5.1838   -3.2746    0.9451 C   0  0  0  0  0  0  0  0  0  0  0  0
   -6.1372   -2.2982    0.6711 C   0  0  0  0  0  0  0  0  0  0  0  0
   -5.7877   -1.1386    0.0724 C   0  0  0  0  0  0  0  0  0  0  0  0
   -4.2958    4.7843   -1.0170 H   0  0  0  0  0  0  0  0  0  0  0  0
   -3.6648    4.2491    0.5312 H   0  0  0  0  0  0  0  0  0  0  0  0
   -2.5640    4.2744   -0.8597 H   0  0  0  0  0  0  0  0  0  0  0  0
   -3.1757    0.5228    1.5154 H   0  0  0  0  0  0  0  0  0  0  0  0
   -3.0096    2.2620    1.7414 H   0  0  0  0  0  0  0  0  0  0  0  0
   -0.6917    0.8330   -1.6408 H   0  0  0  0  0  0  0  0  0  0  0  0
    1.5987    0.1956   -2.3339 H   0  0  0  0  0  0  0  0  0  0  0  0
    2.7812    0.1007    1.7517 H   0  0  0  0  0  0  0  0  0  0  0  0
    5.1483   -0.4758    1.6621 H   0  0  0  0  0  0  0  0  0  0  0  0
    5.5645    1.1283    0.9381 H   0  0  0  0  0  0  0  0  0  0  0  0
    7.3670   -0.8119    1.6998 H   0  0  0  0  0  0  0  0  0  0  0  0
    7.7178    0.3873    0.4129 H   0  0  0  0  0  0  0  0  0  0  0  0
    6.7370   -2.4750   -0.0602 H   0  0  0  0  0  0  0  0  0  0  0  0
    8.0332   -1.4462   -0.8134 H   0  0  0  0  0  0  0  0  0  0  0  0
    6.4179    0.0803   -1.7394 H   0  0  0  0  0  0  0  0  0  0  0  0
    5.6486   -1.5245   -2.0856 H   0  0  0  0  0  0  0  0  0  0  0  0
   -2.4853   -1.6868   -0.3021 H   0  0  0  0  0  0  0  0  0  0  0  0
   -3.1630   -3.8157    0.8215 H   0  0  0  0  0  0  0  0  0  0  0  0
   -5.5835   -4.1648    1.4410 H   0  0  0  0  0  0  0  0  0  0  0  0
   -7.1984   -2.4725    0.9645 H   0  0  0  0  0  0  0  0  0  0  0  0
   -6.5116   -0.3593   -0.1329 H   0  0  0  0  0  0  0  0  0  0  0  0
  1  2  1  0
  2  3  1  0
  3  4  1  0
  4  5  2  0
  5  6  1  0
  6  7  1  0
  7  8  1  0
  8  9  1  0
  9 10  2  0
 10 11  1  0
 11 12  2  0
 12 13  1  0
 13 14  2  0
 12 15  1  0
 15 16  2  0
 15 17  1  0
 17 18  1  0
 18 19  1  0
 19 20  1  0
 20 21  1  0
  5 22  1  0
 22 23  2  0
 23 24  1  0
 24 25  2  0
 25 26  1  0
 26 27  2  0
  6  2  2  0
 14  9  1  0
 21 17  1  0
 27 22  1  0
  1 28  1  0
  1 29  1  0
  1 30  1  0
  7 31  1  0
  7 32  1  0
 10 33  1  0
 11 34  1  0
 13 35  1  0
 18 36  1  0
 18 37  1  0
 19 38  1  0
 19 39  1  0
 20 40  1  0
 20 41  1  0
 21 42  1  0
 21 43  1  0
 23 44  1  0
 24 45  1  0
 25 46  1  0
 26 47  1  0
 27 48  1  0
M  END
$$$$
[H]Oc1c([H])c([H])c(C([H])([H])[C@@]2([H])C(=O)N([H])[C@@]([H])(C([H])([H])c3c([H])c([H])c(O[H])c([H])c3[H])C(=O)N3C([H])([H])C([H])([H])C([H])([H])[C@@]3([H])C(=O)N([H])[C@@]([H])(C([H])([H])c3c([H])n([H])c4c([H])c([H])c([H])c([H])c34)C(=O)N([H])[C@@]([H])(C([H])(C([H])([H])[H])C([H])([H])[H])C(=O)N([H])[C@@]([H])(C([H])([H])c3c([H])nc([H])n3[H])C(=O)N2[H])c([H])c1[H]
     RDKit          3D

113119  0  0  0  0  0  0  0  0999 V2000
    3.0078    4.6030    1.0803 C   0  0  0  0  0  0  0  0  0  0  0  0
    3.6010    3.6651    0.0219 C   0  0  0  0  0  0  0  0  0  0  0  0
    4.1727    4.4863   -1.0825 C   0  0  0  0  0  0  0  0  0  0  0  0
    2.5237    2.6988   -0.4868 C   0  0  2  0  0  0  0  0  0  0  0  0
    3.1271    1.8599   -1.4713 N   0  0  0  0  0  0  0  0  0  0  0  0
    3.6953    0.5940   -1.3193 C   0  0  0  0  0  0  0  0  0  0  0  0
    4.4760    0.1722   -2.2425 O   0  0  0  0  0  0  0  0  0  0  0  0
    3.4781   -0.3354   -0.1634 C   0  0  2  0  0  0  0  0  0  0  0  0
    4.5295   -1.3750   -0.1247 C   0  0  0  0  0  0  0  0  0  0  0  0
    5.9008   -0.8310    0.0467 C   0  0  0  0  0  0  0  0  0  0  0  0
    6.3955    0.4204    0.1692 C   0  0  0  0  0  0  0  0  0  0  0  0
    7.7336    0.4004    0.3090 N   0  0  0  0  0  0  0  0  0  0  0  0
    8.1293   -0.8761    0.2784 C   0  0  0  0  0  0  0  0  0  0  0  0
    9.4034   -1.4005    0.3820 C   0  0  0  0  0  0  0  0  0  0  0  0
    9.5947   -2.7602    0.3239 C   0  0  0  0  0  0  0  0  0  0  0  0
    8.4760   -3.5565    0.1608 C   0  0  0  0  0  0  0  0  0  0  0  0
    7.2008   -3.0330    0.0573 C   0  0  0  0  0  0  0  0  0  0  0  0
    7.0169   -1.6743    0.1161 C   0  0  0  0  0  0  0  0  0  0  0  0
    2.1233   -0.7207    0.0165 N   0  0  0  0  0  0  0  0  0  0  0  0
    1.4672   -1.8152    0.5711 C   0  0  0  0  0  0  0  0  0  0  0  0
    0.8610   -1.5895    1.7226 O   0  0  0  0  0  0  0  0  0  0  0  0
    1.2847   -3.1894    0.1728 C   0  0  2  0  0  0  0  0  0  0  0  0
    2.2382   -3.7483   -0.8557 C   0  0  0  0  0  0  0  0  0  0  0  0
    1.5342   -4.9708   -1.4402 C   0  0  0  0  0  0  0  0  0  0  0  0
    0.3369   -5.0825   -0.4841 C   0  0  0  0  0  0  0  0  0  0  0  0
    0.0307   -3.6257   -0.3723 N   0  0  0  0  0  0  0  0  0  0  0  0
   -1.1345   -2.9903   -0.7387 C   0  0  0  0  0  0  0  0  0  0  0  0
   -1.5910   -3.2912   -1.9247 O   0  0  0  0  0  0  0  0  0  0  0  0
   -1.9870   -2.0115   -0.0314 C   0  0  2  0  0  0  0  0  0  0  0  0
   -2.6107   -2.5029    1.2365 C   0  0  0  0  0  0  0  0  0  0  0  0
   -3.4956   -3.6391    1.1640 C   0  0  0  0  0  0  0  0  0  0  0  0
   -4.8372   -3.4642    0.9074 C   0  0  0  0  0  0  0  0  0  0  0  0
   -5.7154   -4.5459    0.8427 C   0  0  0  0  0  0  0  0  0  0  0  0
   -5.2547   -5.8164    1.0355 C   0  0  0  0  0  0  0  0  0  0  0  0
   -6.1449   -6.8885    0.9676 O   0  0  0  0  0  0  0  0  0  0  0  0
   -3.9110   -6.0016    1.2937 C   0  0  0  0  0  0  0  0  0  0  0  0
   -3.0589   -4.9197    1.3537 C   0  0  0  0  0  0  0  0  0  0  0  0
   -3.1260   -1.6010   -0.8756 N   0  0  0  0  0  0  0  0  0  0  0  0
   -3.4602   -0.2732   -1.1956 C   0  0  0  0  0  0  0  0  0  0  0  0
   -4.0118   -0.0014   -2.2976 O   0  0  0  0  0  0  0  0  0  0  0  0
   -3.2169    0.9127   -0.3190 C   0  0  2  0  0  0  0  0  0  0  0  0
   -4.4072    1.1459    0.5926 C   0  0  0  0  0  0  0  0  0  0  0  0
   -5.6671    1.4091   -0.1571 C   0  0  0  0  0  0  0  0  0  0  0  0
   -5.9876    2.7033   -0.4814 C   0  0  0  0  0  0  0  0  0  0  0  0
   -7.1464    2.9694   -1.1716 C   0  0  0  0  0  0  0  0  0  0  0  0
   -8.0313    1.9838   -1.5686 C   0  0  0  0  0  0  0  0  0  0  0  0
   -9.2072    2.2718   -2.2711 O   0  0  0  0  0  0  0  0  0  0  0  0
   -7.6706    0.6960   -1.2219 C   0  0  0  0  0  0  0  0  0  0  0  0
   -6.5191    0.4117   -0.5338 C   0  0  0  0  0  0  0  0  0  0  0  0
   -2.9460    2.0933   -1.1266 N   0  0  0  0  0  0  0  0  0  0  0  0
   -2.0336    3.1183   -0.8060 C   0  0  0  0  0  0  0  0  0  0  0  0
   -2.2712    4.3165   -1.1933 O   0  0  0  0  0  0  0  0  0  0  0  0
   -0.7711    2.9445   -0.0331 C   0  0  2  0  0  0  0  0  0  0  0  0
   -1.0500    3.2536    1.4192 C   0  0  0  0  0  0  0  0  0  0  0  0
   -1.5467    4.6285    1.6400 C   0  0  0  0  0  0  0  0  0  0  0  0
   -0.8106    5.7626    1.8793 C   0  0  0  0  0  0  0  0  0  0  0  0
   -1.6379    6.7971    2.0314 N   0  0  0  0  0  0  0  0  0  0  0  0
   -2.8845    6.3505    1.8949 C   0  0  0  0  0  0  0  0  0  0  0  0
   -2.8274    5.0373    1.6580 N   0  0  0  0  0  0  0  0  0  0  0  0
    0.2173    3.8560   -0.5635 N   0  0  0  0  0  0  0  0  0  0  0  0
    1.4536    3.5089   -1.1489 C   0  0  0  0  0  0  0  0  0  0  0  0
    1.7486    3.8864   -2.3401 O   0  0  0  0  0  0  0  0  0  0  0  0
    2.6553    5.5222    0.5613 H   0  0  0  0  0  0  0  0  0  0  0  0
    2.2342    4.1003    1.6610 H   0  0  0  0  0  0  0  0  0  0  0  0
    3.8084    4.9380    1.7783 H   0  0  0  0  0  0  0  0  0  0  0  0
    4.4204    3.1392    0.5410 H   0  0  0  0  0  0  0  0  0  0  0  0
    5.2195    4.7747   -0.7900 H   0  0  0  0  0  0  0  0  0  0  0  0
    4.3036    3.9043   -2.0287 H   0  0  0  0  0  0  0  0  0  0  0  0
    3.6408    5.4454   -1.2660 H   0  0  0  0  0  0  0  0  0  0  0  0
    2.1541    2.1869    0.4138 H   0  0  0  0  0  0  0  0  0  0  0  0
    3.1432    2.2644   -2.4590 H   0  0  0  0  0  0  0  0  0  0  0  0
    3.7337    0.3527    0.7235 H   0  0  0  0  0  0  0  0  0  0  0  0
    4.4086   -2.1193    0.6862 H   0  0  0  0  0  0  0  0  0  0  0  0
    4.5977   -1.8733   -1.1513 H   0  0  0  0  0  0  0  0  0  0  0  0
    5.8332    1.3378    0.1596 H   0  0  0  0  0  0  0  0  0  0  0  0
    8.3655    1.2342    0.4233 H   0  0  0  0  0  0  0  0  0  0  0  0
   10.2687   -0.7667    0.5098 H   0  0  0  0  0  0  0  0  0  0  0  0
   10.5948   -3.2066    0.4033 H   0  0  0  0  0  0  0  0  0  0  0  0
    8.6160   -4.6262    0.1137 H   0  0  0  0  0  0  0  0  0  0  0  0
    6.3139   -3.6444   -0.0712 H   0  0  0  0  0  0  0  0  0  0  0  0
    1.4440    0.0383   -0.3637 H   0  0  0  0  0  0  0  0  0  0  0  0
    1.4570   -3.8731    1.0824 H   0  0  0  0  0  0  0  0  0  0  0  0
    3.1567   -4.1616   -0.3886 H   0  0  0  0  0  0  0  0  0  0  0  0
    2.3896   -3.0592   -1.6806 H   0  0  0  0  0  0  0  0  0  0  0  0
    1.1127   -4.7562   -2.4349 H   0  0  0  0  0  0  0  0  0  0  0  0
    2.1452   -5.8719   -1.4366 H   0  0  0  0  0  0  0  0  0  0  0  0
   -0.4050   -5.6510   -1.0212 H   0  0  0  0  0  0  0  0  0  0  0  0
    0.6168   -5.4912    0.4883 H   0  0  0  0  0  0  0  0  0  0  0  0
   -1.4285   -1.0714    0.1459 H   0  0  0  0  0  0  0  0  0  0  0  0
   -1.7731   -2.7415    1.9584 H   0  0  0  0  0  0  0  0  0  0  0  0
   -3.0885   -1.5949    1.7149 H   0  0  0  0  0  0  0  0  0  0  0  0
   -5.2747   -2.4914    0.7458 H   0  0  0  0  0  0  0  0  0  0  0  0
   -6.7757   -4.3951    0.6386 H   0  0  0  0  0  0  0  0  0  0  0  0
   -5.7796   -7.8103    1.1129 H   0  0  0  0  0  0  0  0  0  0  0  0
   -3.5727   -7.0158    1.4423 H   0  0  0  0  0  0  0  0  0  0  0  0
   -2.0252   -5.1130    1.5616 H   0  0  0  0  0  0  0  0  0  0  0  0
   -3.6964   -2.3841   -1.2419 H   0  0  0  0  0  0  0  0  0  0  0  0
   -2.3498    0.7331    0.3474 H   0  0  0  0  0  0  0  0  0  0  0  0
   -4.5725    0.2239    1.1630 H   0  0  0  0  0  0  0  0  0  0  0  0
   -4.2087    1.9615    1.2849 H   0  0  0  0  0  0  0  0  0  0  0  0
   -5.3280    3.5446   -0.1973 H   0  0  0  0  0  0  0  0  0  0  0  0
   -7.4164    4.0039   -1.4388 H   0  0  0  0  0  0  0  0  0  0  0  0
  -10.0858    2.4650   -1.8362 H   0  0  0  0  0  0  0  0  0  0  0  0
   -8.3615   -0.0883   -1.5304 H   0  0  0  0  0  0  0  0  0  0  0  0
   -6.3041   -0.6172   -0.2995 H   0  0  0  0  0  0  0  0  0  0  0  0
   -3.5101    2.1432   -2.0268 H   0  0  0  0  0  0  0  0  0  0  0  0
   -0.4193    1.8867   -0.0736 H   0  0  0  0  0  0  0  0  0  0  0  0
   -0.0960    3.1339    2.0148 H   0  0  0  0  0  0  0  0  0  0  0  0
   -1.7525    2.4964    1.8458 H   0  0  0  0  0  0  0  0  0  0  0  0
    0.2759    5.8566    1.9447 H   0  0  0  0  0  0  0  0  0  0  0  0
   -3.7845    6.9837    1.9701 H   0  0  0  0  0  0  0  0  0  0  0  0
   -3.6789    4.4527    1.5140 H   0  0  0  0  0  0  0  0  0  0  0  0
   -0.0087    4.8739   -0.5169 H   0  0  0  0  0  0  0  0  0  0  0  0
  1  2  1  0
  2  3  1  0
  2  4  1  0
  4  5  1  0
  5  6  1  0
  6  7  2  0
  6  8  1  0
  8  9  1  0
  9 10  1  0
 10 11  2  0
 11 12  1  0
 12 13  1  0
 13 14  2  0
 14 15  1  0
 15 16  2  0
 16 17  1  0
 17 18  2  0
  8 19  1  0
 19 20  1  0
 20 21  2  0
 20 22  1  0
 22 23  1  0
 23 24  1  0
 24 25  1  0
 25 26  1  0
 26 27  1  0
 27 28  2  0
 27 29  1  0
 29 30  1  0
 30 31  1  0
 31 32  2  0
 32 33  1  0
 33 34  2  0
 34 35  1  0
 34 36  1  0
 36 37  2  0
 29 38  1  0
 38 39  1  0
 39 40  2  0
 39 41  1  0
 41 42  1  0
 42 43  1  0
 43 44  2  0
 44 45  1  0
 45 46  2  0
 46 47  1  0
 46 48  1  0
 48 49  2  0
 41 50  1  0
 50 51  1  0
 51 52  2  0
 51 53  1  0
 53 54  1  0
 54 55  1  0
 55 56  2  0
 56 57  1  0
 57 58  2  0
 58 59  1  0
 53 60  1  0
 60 61  1  0
 61 62  2  0
 61  4  1  0
 18 10  1  0
 26 22  1  0
 37 31  1  0
 49 43  1  0
 59 55  1  0
 18 13  1  0
  1 63  1  0
  1 64  1  0
  1 65  1  0
  2 66  1  0
  3 67  1  0
  3 68  1  0
  3 69  1  0
  4 70  1  1
  5 71  1  0
  8 72  1  1
  9 73  1  0
  9 74  1  0
 11 75  1  0
 12 76  1  0
 14 77  1  0
 15 78  1  0
 16 79  1  0
 17 80  1  0
 19 81  1  0
 22 82  1  1
 23 83  1  0
 23 84  1  0
 24 85  1  0
 24 86  1  0
 25 87  1  0
 25 88  1  0
 29 89  1  1
 30 90  1  0
 30 91  1  0
 32 92  1  0
 33 93  1  0
 35 94  1  0
 36 95  1  0
 37 96  1  0
 38 97  1  0
 41 98  1  1
 42 99  1  0
 42100  1  0
 44101  1  0
 45102  1  0
 47103  1  0
 48104  1  0
 49105  1  0
 50106  1  0
 53107  1  1
 54108  1  0
 54109  1  0
 56110  1  0
 58111  1  0
 59112  1  0
 60113  1  0
M  END
$$$$
[H]c1nc(N([H])c2c([H])c(OC([H])([H])[H])c([H])c(OC([H])([H])[H])c2[H])nc(Oc2c([H])c([H])c(N([H])C(=O)N([H])c3c([H])c(C(C([H])([H])[H])(C([H])([H])[H])C([H])([H])[H])nn3-c3c([H])c([H])c(C([H])([H])[H])c([H])c3[H])c3c([H])c([H])c([H])c([H])c23)c1[H]
     RDKit          3D

 85 90  0  0  0  0  0  0  0  0999 V2000
   10.9434   -2.8517   -0.3655 C   0  0  0  0  0  0  0  0  0  0  0  0
   11.4134   -1.5433   -0.4013 O   0  0  0  0  0  0  0  0  0  0  0  0
   10.5962   -0.4618   -0.6259 C   0  0  0  0  0  0  0  0  0  0  0  0
    9.2415   -0.5984   -0.8346 C   0  0  0  0  0  0  0  0  0  0  0  0
    8.4488    0.5121   -1.0580 C   0  0  0  0  0  0  0  0  0  0  0  0
    7.0479    0.3561   -1.2383 N   0  0  0  0  0  0  0  0  0  0  0  0
    6.2212    0.3776   -0.0919 C   0  0  0  0  0  0  0  0  0  0  0  0
    6.7406    0.5177    1.1259 N   0  0  0  0  0  0  0  0  0  0  0  0
    5.9518    0.5699    2.2163 C   0  0  0  0  0  0  0  0  0  0  0  0
    4.6109    0.4823    2.0937 C   0  0  0  0  0  0  0  0  0  0  0  0
    4.0117    0.3316    0.8127 C   0  0  0  0  0  0  0  0  0  0  0  0
    2.7466    0.2450    0.6434 O   0  0  0  0  0  0  0  0  0  0  0  0
    1.5048   -0.0926    0.5279 C   0  0  0  0  0  0  0  0  0  0  0  0
    1.0384   -1.3975    0.7501 C   0  0  0  0  0  0  0  0  0  0  0  0
   -0.3029   -1.6566    0.6128 C   0  0  0  0  0  0  0  0  0  0  0  0
   -1.2483   -0.6982    0.2628 C   0  0  0  0  0  0  0  0  0  0  0  0
   -2.6365   -0.9776    0.2878 N   0  0  0  0  0  0  0  0  0  0  0  0
   -3.2786   -2.2004    0.1162 C   0  0  0  0  0  0  0  0  0  0  0  0
   -2.4440   -3.1754   -0.1441 O   0  0  0  0  0  0  0  0  0  0  0  0
   -4.5963   -2.5870    0.1809 N   0  0  0  0  0  0  0  0  0  0  0  0
   -5.8677   -2.0063    0.2668 C   0  0  0  0  0  0  0  0  0  0  0  0
   -6.9398   -2.7642    0.8456 C   0  0  0  0  0  0  0  0  0  0  0  0
   -8.0625   -1.9900    0.7380 C   0  0  0  0  0  0  0  0  0  0  0  0
   -7.6864   -0.8785    0.1492 N   0  0  0  0  0  0  0  0  0  0  0  0
   -6.3668   -0.8603   -0.1499 N   0  0  0  0  0  0  0  0  0  0  0  0
   -5.7949    0.2418   -0.8728 C   0  0  0  0  0  0  0  0  0  0  0  0
   -5.2864    0.0895   -2.1398 C   0  0  0  0  0  0  0  0  0  0  0  0
   -4.8080    1.1685   -2.8854 C   0  0  0  0  0  0  0  0  0  0  0  0
   -4.8316    2.4431   -2.3637 C   0  0  0  0  0  0  0  0  0  0  0  0
   -4.3333    3.5992   -3.1740 C   0  0  0  0  0  0  0  0  0  0  0  0
   -5.3400    2.5957   -1.0905 C   0  0  0  0  0  0  0  0  0  0  0  0
   -5.8182    1.5221   -0.3436 C   0  0  0  0  0  0  0  0  0  0  0  0
   -9.4469   -2.3557    1.2312 C   0  0  0  0  0  0  0  0  0  0  0  0
   -9.7762   -3.7190    0.7185 C   0  0  0  0  0  0  0  0  0  0  0  0
   -9.4580   -2.2938    2.7586 C   0  0  0  0  0  0  0  0  0  0  0  0
  -10.3917   -1.3175    0.6926 C   0  0  0  0  0  0  0  0  0  0  0  0
   -0.7559    0.5741    0.0477 C   0  0  0  0  0  0  0  0  0  0  0  0
   -1.6401    1.5980   -0.3341 C   0  0  0  0  0  0  0  0  0  0  0  0
   -1.2016    2.8668   -0.5759 C   0  0  0  0  0  0  0  0  0  0  0  0
    0.1365    3.1784   -0.4522 C   0  0  0  0  0  0  0  0  0  0  0  0
    1.0236    2.1889   -0.0785 C   0  0  0  0  0  0  0  0  0  0  0  0
    0.5637    0.8913    0.1684 C   0  0  0  0  0  0  0  0  0  0  0  0
    4.8995    0.2868   -0.2337 N   0  0  0  0  0  0  0  0  0  0  0  0
    9.0278    1.7510   -1.0703 C   0  0  0  0  0  0  0  0  0  0  0  0
   10.3976    1.9376   -0.8628 C   0  0  0  0  0  0  0  0  0  0  0  0
   10.9439    3.2036   -0.8795 O   0  0  0  0  0  0  0  0  0  0  0  0
   12.3068    3.4311   -0.6778 C   0  0  0  0  0  0  0  0  0  0  0  0
   11.1623    0.8278   -0.6430 C   0  0  0  0  0  0  0  0  0  0  0  0
   11.5438   -3.4211    0.3932 H   0  0  0  0  0  0  0  0  0  0  0  0
    9.8794   -2.9391   -0.1566 H   0  0  0  0  0  0  0  0  0  0  0  0
   11.1326   -3.3308   -1.3606 H   0  0  0  0  0  0  0  0  0  0  0  0
    8.7265   -1.5528   -0.8433 H   0  0  0  0  0  0  0  0  0  0  0  0
    6.6513    0.2278   -2.1779 H   0  0  0  0  0  0  0  0  0  0  0  0
    6.3641    0.6850    3.2324 H   0  0  0  0  0  0  0  0  0  0  0  0
    3.8955    0.5113    2.9061 H   0  0  0  0  0  0  0  0  0  0  0  0
    1.7866   -2.1145    1.0233 H   0  0  0  0  0  0  0  0  0  0  0  0
   -0.6001   -2.6712    0.8170 H   0  0  0  0  0  0  0  0  0  0  0  0
   -3.2440   -0.1395    0.5147 H   0  0  0  0  0  0  0  0  0  0  0  0
   -4.6987   -3.7027    0.0127 H   0  0  0  0  0  0  0  0  0  0  0  0
   -6.8590   -3.7400    1.2783 H   0  0  0  0  0  0  0  0  0  0  0  0
   -5.2662   -0.9151   -2.5563 H   0  0  0  0  0  0  0  0  0  0  0  0
   -4.4152    1.0202   -3.8870 H   0  0  0  0  0  0  0  0  0  0  0  0
   -4.9037    4.5105   -2.8285 H   0  0  0  0  0  0  0  0  0  0  0  0
   -4.5989    3.4678   -4.2405 H   0  0  0  0  0  0  0  0  0  0  0  0
   -3.2721    3.7540   -2.9851 H   0  0  0  0  0  0  0  0  0  0  0  0
   -5.3689    3.5858   -0.6489 H   0  0  0  0  0  0  0  0  0  0  0  0
   -6.2085    1.6615    0.6547 H   0  0  0  0  0  0  0  0  0  0  0  0
  -10.8572   -3.9350    0.8709 H   0  0  0  0  0  0  0  0  0  0  0  0
   -9.6190   -3.7012   -0.3781 H   0  0  0  0  0  0  0  0  0  0  0  0
   -9.1986   -4.5126    1.2075 H   0  0  0  0  0  0  0  0  0  0  0  0
  -10.4964   -2.0654    3.0777 H   0  0  0  0  0  0  0  0  0  0  0  0
   -9.0937   -3.2340    3.2182 H   0  0  0  0  0  0  0  0  0  0  0  0
   -8.8527   -1.4290    3.0871 H   0  0  0  0  0  0  0  0  0  0  0  0
  -10.8822   -1.6443   -0.2310 H   0  0  0  0  0  0  0  0  0  0  0  0
   -9.8447   -0.3787    0.4677 H   0  0  0  0  0  0  0  0  0  0  0  0
  -11.1925   -1.0478    1.4112 H   0  0  0  0  0  0  0  0  0  0  0  0
   -2.6536    1.3515   -0.4401 H   0  0  0  0  0  0  0  0  0  0  0  0
   -1.8582    3.6873   -0.8717 H   0  0  0  0  0  0  0  0  0  0  0  0
    0.5082    4.1754   -0.6442 H   0  0  0  0  0  0  0  0  0  0  0  0
    2.0826    2.4089    0.0260 H   0  0  0  0  0  0  0  0  0  0  0  0
    8.4572    2.6691   -1.2415 H   0  0  0  0  0  0  0  0  0  0  0  0
   12.5550    3.5460    0.4020 H   0  0  0  0  0  0  0  0  0  0  0  0
   12.5990    4.3809   -1.2129 H   0  0  0  0  0  0  0  0  0  0  0  0
   12.9055    2.6045   -1.1035 H   0  0  0  0  0  0  0  0  0  0  0  0
   12.2302    0.8654   -0.4740 H   0  0  0  0  0  0  0  0  0  0  0  0
  1  2  1  0
  2  3  1  0
  3  4  2  0
  4  5  1  0
  5  6  1  0
  6  7  1  0
  7  8  2  0
  8  9  1  0
  9 10  2  0
 10 11  1  0
 11 12  1  0
 12 13  1  0
 13 14  2  0
 14 15  1  0
 15 16  2  0
 16 17  1  0
 17 18  1  0
 18 19  2  0
 18 20  1  0
 20 21  1  0
 21 22  2  0
 22 23  1  0
 23 24  2  0
 24 25  1  0
 25 26  1  0
 26 27  2  0
 27 28  1  0
 28 29  2  0
 29 30  1  0
 29 31  1  0
 31 32  2  0
 23 33  1  0
 33 34  1  0
 33 35  1  0
 33 36  1  0
 16 37  1  0
 37 38  2  0
 38 39  1  0
 39 40  2  0
 40 41  1  0
 41 42  2  0
 11 43  2  0
  5 44  2  0
 44 45  1  0
 45 46  1  0
 46 47  1  0
 45 48  2  0
 48  3  1  0
 43  7  1  0
 42 13  1  0
 25 21  1  0
 32 26  1  0
 42 37  1  0
  1 49  1  0
  1 50  1  0
  1 51  1  0
  4 52  1  0
  6 53  1  0
  9 54  1  0
 10 55  1  0
 14 56  1  0
 15 57  1  0
 17 58  1  0
 20 59  1  0
 22 60  1  0
 27 61  1  0
 28 62  1  0
 30 63  1  0
 30 64  1  0
 30 65  1  0
 31 66  1  0
 32 67  1  0
 34 68  1  0
 34 69  1  0
 34 70  1  0
 35 71  1  0
 35 72  1  0
 35 73  1  0
 36 74  1  0
 36 75  1  0
 36 76  1  0
 38 77  1  0
 39 78  1  0
 40 79  1  0
 41 80  1  0
 44 81  1  0
 47 82  1  0
 47 83  1  0
 47 84  1  0
 48 85  1  0
M  END
$$$$
[H]OC(=O)[C@]1([H])N([H])[C@@]([H])(C([H])(C([H])([H])[H])C([H])([H])[H])c2c(c3c([H])c([H])c([H])c([H])c3n2[H])C1([H])[H]
     RDKit          3D

 37 39  0  0  0  0  0  0  0  0999 V2000
   -2.0816   -2.3209    1.3672 C   0  0  0  0  0  0  0  0  0  0  0  0
   -2.2816   -1.4004    0.2207 C   0  0  0  0  0  0  0  0  0  0  0  0
   -2.0505   -2.0891   -1.1218 C   0  0  0  0  0  0  0  0  0  0  0  0
   -1.4810   -0.1199    0.3158 C   0  0  2  0  0  0  0  0  0  0  0  0
   -1.7991    0.6415   -0.8700 N   0  0  0  0  0  0  0  0  0  0  0  0
   -1.1575    1.8763   -1.0331 C   0  0  2  0  0  0  0  0  0  0  0  0
    0.1267    2.0801   -0.3285 C   0  0  0  0  0  0  0  0  0  0  0  0
    0.7637    0.7587    0.0224 C   0  0  0  0  0  0  0  0  0  0  0  0
   -0.0230   -0.3303    0.3414 C   0  0  0  0  0  0  0  0  0  0  0  0
    0.8192   -1.3446    0.6029 N   0  0  0  0  0  0  0  0  0  0  0  0
    2.0951   -0.9698    0.4704 C   0  0  0  0  0  0  0  0  0  0  0  0
    3.3096   -1.6107    0.6203 C   0  0  0  0  0  0  0  0  0  0  0  0
    4.5141   -0.9642    0.4143 C   0  0  0  0  0  0  0  0  0  0  0  0
    4.5115    0.3756    0.0437 C   0  0  0  0  0  0  0  0  0  0  0  0
    3.2873    1.0160   -0.1058 C   0  0  0  0  0  0  0  0  0  0  0  0
    2.0838    0.3688    0.1004 C   0  0  0  0  0  0  0  0  0  0  0  0
   -2.0977    2.9653   -0.5959 C   0  0  0  0  0  0  0  0  0  0  0  0
   -1.6197    4.2650   -0.6915 O   0  0  0  0  0  0  0  0  0  0  0  0
   -3.2383    2.7090   -0.1733 O   0  0  0  0  0  0  0  0  0  0  0  0
   -3.0644   -2.5607    1.8171 H   0  0  0  0  0  0  0  0  0  0  0  0
   -1.6311   -3.2964    1.0996 H   0  0  0  0  0  0  0  0  0  0  0  0
   -1.5058   -1.7875    2.1491 H   0  0  0  0  0  0  0  0  0  0  0  0
   -3.3459   -1.0882    0.2105 H   0  0  0  0  0  0  0  0  0  0  0  0
   -2.9941   -2.5537   -1.4913 H   0  0  0  0  0  0  0  0  0  0  0  0
   -1.7469   -1.3422   -1.8723 H   0  0  0  0  0  0  0  0  0  0  0  0
   -1.3204   -2.9031   -1.0217 H   0  0  0  0  0  0  0  0  0  0  0  0
   -1.8206    0.4155    1.2058 H   0  0  0  0  0  0  0  0  0  0  0  0
   -2.7706    0.5691   -1.1694 H   0  0  0  0  0  0  0  0  0  0  0  0
   -0.9699    2.0384   -2.1356 H   0  0  0  0  0  0  0  0  0  0  0  0
    0.8602    2.6368   -0.9502 H   0  0  0  0  0  0  0  0  0  0  0  0
   -0.0118    2.6703    0.6006 H   0  0  0  0  0  0  0  0  0  0  0  0
    0.5510   -2.3307    0.8818 H   0  0  0  0  0  0  0  0  0  0  0  0
    3.3574   -2.6579    0.9089 H   0  0  0  0  0  0  0  0  0  0  0  0
    5.4678   -1.4636    0.5309 H   0  0  0  0  0  0  0  0  0  0  0  0
    5.4319    0.8888   -0.1190 H   0  0  0  0  0  0  0  0  0  0  0  0
    3.2487    2.0585   -0.3933 H   0  0  0  0  0  0  0  0  0  0  0  0
   -1.4166    4.8004    0.1489 H   0  0  0  0  0  0  0  0  0  0  0  0
  1  2  1  0
  2  3  1  0
  2  4  1  0
  4  5  1  0
  5  6  1  0
  6  7  1  0
  7  8  1  0
  8  9  2  0
  9 10  1  0
 10 11  1  0
 11 12  2  0
 12 13  1  0
 13 14  2  0
 14 15  1  0
 15 16  2  0
  6 17  1  0
 17 18  1  0
 17 19  2  0
  9  4  1  0
 16 11  1  0
 16  8  1  0
  1 20  1  0
  1 21  1  0
  1 22  1  0
  2 23  1  0
  3 24  1  0
  3 25  1  0
  3 26  1  0
  4 27  1  1
  5 28  1  0
  6 29  1  6
  7 30  1  0
  7 31  1  0
 10 32  1  0
 12 33  1  0
 13 34  1  0
 14 35  1  0
 15 36  1  0
 18 37  1  0
M  END
$$$$
[H]OC([H])([H])[C@@]1(O[H])C([H])([H])[C@@]2([H])O[C@]1(C([H])([H])[H])n1c3c([H])c([H])c([H])c([H])c3c3c4c(c5c6c([H])c([H])c([H])c([H])c6n2c5c31)C(=O)N([H])C4([H])[H]
     RDKit          3D

 54 61  0  0  0  0  0  0  0  0999 V2000
    3.1800    0.8838    1.3878 C   0  0  0  0  0  0  0  0  0  0  0  0
    2.1176    0.2237    0.5774 C   0  0  2  0  0  0  0  0  0  0  0  0
    1.6968   -0.7870    1.4854 O   0  0  0  0  0  0  0  0  0  0  0  0
    1.2511   -1.8639    0.7986 C   0  0  2  0  0  0  0  0  0  0  0  0
    2.0328   -1.9517   -0.4419 C   0  0  0  0  0  0  0  0  0  0  0  0
    2.6347   -0.5714   -0.5849 C   0  0  1  0  0  0  0  0  0  0  0  0
    2.2138   -0.0799   -1.8115 O   0  0  0  0  0  0  0  0  0  0  0  0
    4.1191   -0.7109   -0.6110 C   0  0  0  0  0  0  0  0  0  0  0  0
    4.4589   -1.5975   -1.6334 O   0  0  0  0  0  0  0  0  0  0  0  0
   -0.2014   -1.7853    0.5955 N   0  0  0  0  0  0  0  0  0  0  0  0
   -1.1044   -2.7499    0.6347 C   0  0  0  0  0  0  0  0  0  0  0  0
   -0.9179   -4.0868    0.8734 C   0  0  0  0  0  0  0  0  0  0  0  0
   -2.0299   -4.9199    0.8648 C   0  0  0  0  0  0  0  0  0  0  0  0
   -3.2823   -4.4161    0.6235 C   0  0  0  0  0  0  0  0  0  0  0  0
   -3.4758   -3.0511    0.3794 C   0  0  0  0  0  0  0  0  0  0  0  0
   -2.3768   -2.2421    0.3902 C   0  0  0  0  0  0  0  0  0  0  0  0
   -2.2053   -0.8905    0.1945 C   0  0  0  0  0  0  0  0  0  0  0  0
   -3.0670    0.1511   -0.0975 C   0  0  0  0  0  0  0  0  0  0  0  0
   -4.5001    0.2660   -0.2996 C   0  0  0  0  0  0  0  0  0  0  0  0
   -5.3884   -0.5871   -0.2658 O   0  0  0  0  0  0  0  0  0  0  0  0
   -4.7851    1.6416   -0.5724 N   0  0  0  0  0  0  0  0  0  0  0  0
   -3.5735    2.4248   -0.5610 C   0  0  0  0  0  0  0  0  0  0  0  0
   -2.5314    1.4168   -0.2472 C   0  0  0  0  0  0  0  0  0  0  0  0
   -1.1701    1.6669   -0.1133 C   0  0  0  0  0  0  0  0  0  0  0  0
   -0.3770    2.7657   -0.2198 C   0  0  0  0  0  0  0  0  0  0  0  0
   -0.7006    4.0705   -0.5126 C   0  0  0  0  0  0  0  0  0  0  0  0
    0.3203    5.0230   -0.5829 C   0  0  0  0  0  0  0  0  0  0  0  0
    1.6233    4.6180   -0.3553 C   0  0  0  0  0  0  0  0  0  0  0  0
    1.9232    3.2989   -0.0625 C   0  0  0  0  0  0  0  0  0  0  0  0
    0.9354    2.3466    0.0129 C   0  0  0  0  0  0  0  0  0  0  0  0
    0.9590    1.0103    0.2643 N   0  0  0  0  0  0  0  0  0  0  0  0
   -0.3578    0.6223    0.1746 C   0  0  0  0  0  0  0  0  0  0  0  0
   -0.8544   -0.6533    0.3299 C   0  0  0  0  0  0  0  0  0  0  0  0
    4.0624    1.2462    0.8471 H   0  0  0  0  0  0  0  0  0  0  0  0
    3.5596    0.1949    2.1815 H   0  0  0  0  0  0  0  0  0  0  0  0
    2.7312    1.7230    1.9466 H   0  0  0  0  0  0  0  0  0  0  0  0
    1.4219   -2.7643    1.4120 H   0  0  0  0  0  0  0  0  0  0  0  0
    1.4720   -2.2700   -1.3403 H   0  0  0  0  0  0  0  0  0  0  0  0
    2.8377   -2.7359   -0.3258 H   0  0  0  0  0  0  0  0  0  0  0  0
    2.8799   -0.3390   -2.4928 H   0  0  0  0  0  0  0  0  0  0  0  0
    4.5238   -1.1579    0.3296 H   0  0  0  0  0  0  0  0  0  0  0  0
    4.6358    0.2581   -0.8438 H   0  0  0  0  0  0  0  0  0  0  0  0
    4.7979   -2.4633   -1.2908 H   0  0  0  0  0  0  0  0  0  0  0  0
    0.0592   -4.4684    1.0598 H   0  0  0  0  0  0  0  0  0  0  0  0
   -1.8569   -5.9719    1.0560 H   0  0  0  0  0  0  0  0  0  0  0  0
   -4.1224   -5.0759    0.6219 H   0  0  0  0  0  0  0  0  0  0  0  0
   -4.4721   -2.7398    0.2018 H   0  0  0  0  0  0  0  0  0  0  0  0
   -5.7336    2.0654   -0.7610 H   0  0  0  0  0  0  0  0  0  0  0  0
   -3.6366    3.2333    0.1993 H   0  0  0  0  0  0  0  0  0  0  0  0
   -3.3846    2.8954   -1.5673 H   0  0  0  0  0  0  0  0  0  0  0  0
   -1.7294    4.3700   -0.6881 H   0  0  0  0  0  0  0  0  0  0  0  0
    0.0587    6.0490   -0.8135 H   0  0  0  0  0  0  0  0  0  0  0  0
    2.3774    5.3965   -0.4223 H   0  0  0  0  0  0  0  0  0  0  0  0
    2.9510    3.0689    0.0761 H   0  0  0  0  0  0  0  0  0  0  0  0
  2  1  1  1
  2  3  1  0
  3  4  1  0
  4  5  1  0
  5  6  1  0
  6  7  1  6
  6  8  1  0
  8  9  1  0
  4 10  1  0
 10 11  1  0
 11 12  2  0
 12 13  1  0
 13 14  2  0
 14 15  1  0
 15 16  2  0
 16 17  1  0
 17 18  2  0
 18 19  1  0
 19 20  2  0
 19 21  1  0
 21 22  1  0
 22 23  1  0
 23 24  2  0
 24 25  1  0
 25 26  2  0
 26 27  1  0
 27 28  2  0
 28 29  1  0
 29 30  2  0
 30 31  1  0
 31 32  1  0
 32 33  2  0
  6  2  1  0
 33 10  1  0
 31  2  1  0
 16 11  1  0
 33 17  1  0
 23 18  1  0
 32 24  1  0
 30 25  1  0
  1 34  1  0
  1 35  1  0
  1 36  1  0
  4 37  1  1
  5 38  1  0
  5 39  1  0
  7 40  1  0
  8 41  1  0
  8 42  1  0
  9 43  1  0
 12 44  1  0
 13 45  1  0
 14 46  1  0
 15 47  1  0
 21 48  1  0
 22 49  1  0
 22 50  1  0
 26 51  1  0
 27 52  1  0
 28 53  1  0
 29 54  1  0
M  END
$$$$
[H]c1c([H])c([H])c2c(c1[H])c1c3c(c4c5c([H])c([H])c([H])c([H])c5n5c4c1n2[C@@]1(C([H])([H])[H])O[C@]5([H])C([H])([H])[C@]1([H])N([H])C([H])([H])[H])C(=O)N([H])C3([H])[H]
     RDKit          3D

 54 61  0  0  0  0  0  0  0  0999 V2000
    4.4728   -1.8334    0.0860 C   0  0  0  0  0  0  0  0  0  0  0  0
    3.9311   -1.1464   -1.0361 N   0  0  0  0  0  0  0  0  0  0  0  0
    2.5532   -0.7952   -0.9745 C   0  0  1  0  0  0  0  0  0  0  0  0
    1.6298   -1.9861   -0.8830 C   0  0  0  0  0  0  0  0  0  0  0  0
    1.0968   -1.9378    0.5319 C   0  0  1  0  0  0  0  0  0  0  0  0
    1.6906   -0.8699    1.1763 O   0  0  0  0  0  0  0  0  0  0  0  0
    2.1268    0.0413    0.1658 C   0  0  1  0  0  0  0  0  0  0  0  0
    3.2883    0.7855    0.8426 C   0  0  0  0  0  0  0  0  0  0  0  0
    1.0243    0.9447   -0.0992 N   0  0  0  0  0  0  0  0  0  0  0  0
    1.0983    2.2472   -0.4411 C   0  0  0  0  0  0  0  0  0  0  0  0
    2.1481    3.0886   -0.7235 C   0  0  0  0  0  0  0  0  0  0  0  0
    1.9135    4.4104   -1.0743 C   0  0  0  0  0  0  0  0  0  0  0  0
    0.6373    4.9411   -1.1579 C   0  0  0  0  0  0  0  0  0  0  0  0
   -0.4368    4.0939   -0.8748 C   0  0  0  0  0  0  0  0  0  0  0  0
   -0.1742    2.7960   -0.5318 C   0  0  0  0  0  0  0  0  0  0  0  0
   -1.0675    1.7880   -0.2400 C   0  0  0  0  0  0  0  0  0  0  0  0
   -2.4312    1.6807   -0.1675 C   0  0  0  0  0  0  0  0  0  0  0  0
   -3.4355    2.7466   -0.4080 C   0  0  0  0  0  0  0  0  0  0  0  0
   -4.7063    2.1126   -0.1753 N   0  0  0  0  0  0  0  0  0  0  0  0
   -4.5053    0.7206    0.1548 C   0  0  0  0  0  0  0  0  0  0  0  0
   -5.4591   -0.0313    0.3792 O   0  0  0  0  0  0  0  0  0  0  0  0
   -3.0841    0.5102    0.1454 C   0  0  0  0  0  0  0  0  0  0  0  0
   -2.3032   -0.6072    0.3945 C   0  0  0  0  0  0  0  0  0  0  0  0
   -2.5582   -1.9134    0.6941 C   0  0  0  0  0  0  0  0  0  0  0  0
   -3.7041   -2.6229    0.8981 C   0  0  0  0  0  0  0  0  0  0  0  0
   -3.6023   -3.9872    1.2007 C   0  0  0  0  0  0  0  0  0  0  0  0
   -2.3947   -4.6435    1.3010 C   0  0  0  0  0  0  0  0  0  0  0  0
   -1.2447   -3.9067    1.0909 C   0  0  0  0  0  0  0  0  0  0  0  0
   -1.3221   -2.5534    0.7898 C   0  0  0  0  0  0  0  0  0  0  0  0
   -0.3423   -1.7136    0.5677 N   0  0  0  0  0  0  0  0  0  0  0  0
   -0.9229   -0.5075    0.3246 C   0  0  0  0  0  0  0  0  0  0  0  0
   -0.3161    0.6841    0.0133 C   0  0  0  0  0  0  0  0  0  0  0  0
    5.2925   -1.2367    0.5787 H   0  0  0  0  0  0  0  0  0  0  0  0
    3.7795   -2.1325    0.8653 H   0  0  0  0  0  0  0  0  0  0  0  0
    5.0043   -2.7793   -0.2312 H   0  0  0  0  0  0  0  0  0  0  0  0
    4.1134   -1.6762   -1.9089 H   0  0  0  0  0  0  0  0  0  0  0  0
    2.3169   -0.3072   -1.9676 H   0  0  0  0  0  0  0  0  0  0  0  0
    2.2544   -2.8908   -1.0796 H   0  0  0  0  0  0  0  0  0  0  0  0
    0.8191   -1.9861   -1.6207 H   0  0  0  0  0  0  0  0  0  0  0  0
    1.2961   -2.9034    0.9841 H   0  0  0  0  0  0  0  0  0  0  0  0
    2.9401    1.6877    1.3637 H   0  0  0  0  0  0  0  0  0  0  0  0
    3.6779    0.1327    1.7036 H   0  0  0  0  0  0  0  0  0  0  0  0
    4.1527    0.8954    0.1914 H   0  0  0  0  0  0  0  0  0  0  0  0
    3.1547    2.7546   -0.7083 H   0  0  0  0  0  0  0  0  0  0  0  0
    2.7326    5.0924   -1.3026 H   0  0  0  0  0  0  0  0  0  0  0  0
    0.5068    5.9676   -1.4315 H   0  0  0  0  0  0  0  0  0  0  0  0
   -1.4428    4.4896   -0.9373 H   0  0  0  0  0  0  0  0  0  0  0  0
   -3.3343    3.5988    0.3097 H   0  0  0  0  0  0  0  0  0  0  0  0
   -3.4208    3.0912   -1.4650 H   0  0  0  0  0  0  0  0  0  0  0  0
   -5.6409    2.5731   -0.2304 H   0  0  0  0  0  0  0  0  0  0  0  0
   -4.6916   -2.2527    0.8537 H   0  0  0  0  0  0  0  0  0  0  0  0
   -4.5122   -4.5737    1.3691 H   0  0  0  0  0  0  0  0  0  0  0  0
   -2.3226   -5.7027    1.5351 H   0  0  0  0  0  0  0  0  0  0  0  0
   -0.2758   -4.3782    1.1592 H   0  0  0  0  0  0  0  0  0  0  0  0
  1  2  1  0
  2  3  1  0
  3  4  1  0
  4  5  1  0
  5  6  1  0
  6  7  1  0
  7  8  1  1
  7  9  1  0
  9 10  1  0
 10 11  2  0
 11 12  1  0
 12 13  2  0
 13 14  1  0
 14 15  2  0
 15 16  1  0
 16 17  2  0
 17 18  1  0
 18 19  1  0
 19 20  1  0
 20 21  2  0
 20 22  1  0
 22 23  2  0
 23 24  1  0
 24 25  2  0
 25 26  1  0
 26 27  2  0
 27 28  1  0
 28 29  2  0
 29 30  1  0
 30 31  1  0
 31 32  2  0
  7  3  1  0
 32  9  1  0
 30  5  1  0
 15 10  1  0
 32 16  1  0
 22 17  1  0
 31 23  1  0
 29 24  1  0
  1 33  1  0
  1 34  1  0
  1 35  1  0
  2 36  1  0
  3 37  1  6
  4 38  1  0
  4 39  1  0
  5 40  1  1
  8 41  1  0
  8 42  1  0
  8 43  1  0
 11 44  1  0
 12 45  1  0
 13 46  1  0
 14 47  1  0
 18 48  1  0
 18 49  1  0
 19 50  1  0
 25 51  1  0
 26 52  1  0
 27 53  1  0
 28 54  1  0
M  END
$$$$
[H]ON([H])C(=O)C([H])([H])N(C([H])([H])c1c([H])c([H])c([N+](=O)[O-])c([H])c1[H])S(=O)(=O)c1c([H])c([H])c(-c2c([H])c([H])c([H])c([H])c2[H])c([H])c1[H]
     RDKit          3D

 50 52  0  0  0  0  0  0  0  0999 V2000
   -3.3880    4.8280   -0.3137 O   0  0  0  0  0  0  0  0  0  0  0  0
   -2.8571    3.5654   -0.3783 N   0  0  0  0  0  0  0  0  0  0  0  0
   -1.9417    3.2517   -1.3986 C   0  0  0  0  0  0  0  0  0  0  0  0
   -1.6343    4.1383   -2.2318 O   0  0  0  0  0  0  0  0  0  0  0  0
   -1.3360    1.9185   -1.5205 C   0  0  0  0  0  0  0  0  0  0  0  0
   -1.8142    1.0597   -0.4286 N   0  0  0  0  0  0  0  0  0  0  0  0
   -2.1852   -0.2315   -0.9279 C   0  0  0  0  0  0  0  0  0  0  0  0
   -3.3292   -0.8704   -0.2425 C   0  0  0  0  0  0  0  0  0  0  0  0
   -4.1033   -0.2664    0.7094 C   0  0  0  0  0  0  0  0  0  0  0  0
   -5.1557   -0.8898    1.3263 C   0  0  0  0  0  0  0  0  0  0  0  0
   -5.4660   -2.1819    0.9884 C   0  0  0  0  0  0  0  0  0  0  0  0
   -4.7124   -2.8335    0.0317 C   0  0  0  0  0  0  0  0  0  0  0  0
   -3.6595   -2.1800   -0.5715 C   0  0  0  0  0  0  0  0  0  0  0  0
   -6.5732   -2.8559    1.6284 N   0  0  0  0  0  0  0  0  0  0  0  0
   -7.3198   -2.2128    2.5752 O   0  0  0  0  0  0  0  0  0  0  0  0
   -6.8488   -4.0187    1.3206 O   0  0  0  0  0  0  0  0  0  0  0  0
   -0.6726    1.1120    0.7883 S   0  0  0  0  0  0  0  0  0  0  0  0
   -0.5686    2.5123    1.3235 O   0  0  0  0  0  0  0  0  0  0  0  0
   -1.2071    0.2785    1.9528 O   0  0  0  0  0  0  0  0  0  0  0  0
    0.9181    0.5546    0.4892 C   0  0  0  0  0  0  0  0  0  0  0  0
    1.8545    1.4802    0.0813 C   0  0  0  0  0  0  0  0  0  0  0  0
    3.1706    1.1199   -0.1857 C   0  0  0  0  0  0  0  0  0  0  0  0
    3.5686   -0.1939   -0.0442 C   0  0  0  0  0  0  0  0  0  0  0  0
    2.6129   -1.0986    0.3648 C   0  0  0  0  0  0  0  0  0  0  0  0
    1.3290   -0.7537    0.6265 C   0  0  0  0  0  0  0  0  0  0  0  0
    4.9434   -0.6116   -0.3153 C   0  0  0  0  0  0  0  0  0  0  0  0
    5.2835   -1.8396   -0.7855 C   0  0  0  0  0  0  0  0  0  0  0  0
    6.6161   -2.1253   -1.0052 C   0  0  0  0  0  0  0  0  0  0  0  0
    7.6219   -1.2148   -0.7673 C   0  0  0  0  0  0  0  0  0  0  0  0
    7.2743    0.0401   -0.2868 C   0  0  0  0  0  0  0  0  0  0  0  0
    5.9411    0.3236   -0.0678 C   0  0  0  0  0  0  0  0  0  0  0  0
   -2.7088    5.3794    0.1530 H   0  0  0  0  0  0  0  0  0  0  0  0
   -3.2038    2.9297    0.3639 H   0  0  0  0  0  0  0  0  0  0  0  0
   -1.6717    1.5205   -2.5054 H   0  0  0  0  0  0  0  0  0  0  0  0
   -0.2337    1.9501   -1.4568 H   0  0  0  0  0  0  0  0  0  0  0  0
   -1.3093   -0.9150   -0.7159 H   0  0  0  0  0  0  0  0  0  0  0  0
   -2.3792   -0.1530   -2.0098 H   0  0  0  0  0  0  0  0  0  0  0  0
   -3.8723    0.7568    0.9874 H   0  0  0  0  0  0  0  0  0  0  0  0
   -5.7403   -0.3551    2.0822 H   0  0  0  0  0  0  0  0  0  0  0  0
   -4.9838   -3.8701   -0.2200 H   0  0  0  0  0  0  0  0  0  0  0  0
   -3.0997   -2.7307   -1.3134 H   0  0  0  0  0  0  0  0  0  0  0  0
    1.6150    2.5459   -0.0538 H   0  0  0  0  0  0  0  0  0  0  0  0
    3.9126    1.8388   -0.5065 H   0  0  0  0  0  0  0  0  0  0  0  0
    2.8745   -2.1545    0.4932 H   0  0  0  0  0  0  0  0  0  0  0  0
    0.5522   -1.4370    0.9494 H   0  0  0  0  0  0  0  0  0  0  0  0
    4.5189   -2.5678   -0.9791 H   0  0  0  0  0  0  0  0  0  0  0  0
    6.9321   -3.0977   -1.3817 H   0  0  0  0  0  0  0  0  0  0  0  0
    8.6544   -1.4793   -0.9530 H   0  0  0  0  0  0  0  0  0  0  0  0
    8.0765    0.7320   -0.1094 H   0  0  0  0  0  0  0  0  0  0  0  0
    5.7051    1.3026    0.3041 H   0  0  0  0  0  0  0  0  0  0  0  0
  1  2  1  0
  2  3  1  0
  3  4  2  0
  3  5  1  0
  5  6  1  0
  6  7  1  0
  7  8  1  0
  8  9  2  0
  9 10  1  0
 10 11  2  0
 11 12  1  0
 12 13  2  0
 11 14  1  0
 14 15  1  0
 14 16  2  0
  6 17  1  0
 17 18  2  0
 17 19  2  0
 17 20  1  0
 20 21  2  0
 21 22  1  0
 22 23  2  0
 23 24  1  0
 24 25  2  0
 23 26  1  0
 26 27  2  0
 27 28  1  0
 28 29  2  0
 29 30  1  0
 30 31  2  0
 13  8  1  0
 25 20  1  0
 31 26  1  0
  1 32  1  0
  2 33  1  0
  5 34  1  0
  5 35  1  0
  7 36  1  0
  7 37  1  0
  9 38  1  0
 10 39  1  0
 12 40  1  0
 13 41  1  0
 21 42  1  0
 22 43  1  0
 24 44  1  0
 25 45  1  0
 27 46  1  0
 28 47  1  0
 29 48  1  0
 30 49  1  0
 31 50  1  0
M  CHG  2  14   1  15  -1
M  END
$$$$
[H]N=C(N([H])[H])N([H])C([H])([H])C([H])([H])C([H])([H])[C@@]([H])(C([H])=O)N([H])C(=O)[C@@]1([H])N(C(=O)[C@]([H])(N([H])S(=O)(=O)C([H])([H])c2c([H])c([H])c([H])c([H])c2[H])C([H])([H])c2c([H])c([H])c([H])c([H])c2[H])C([H])([H])C([H])([H])C1([H])[H]
     RDKit          3D

 75 77  0  0  0  0  0  0  0  0999 V2000
    7.6620    4.1302    0.6482 N   0  0  0  0  0  0  0  0  0  0  0  0
    7.6050    3.2046   -0.4212 C   0  0  0  0  0  0  0  0  0  0  0  0
    7.9267    3.4868   -1.6387 N   0  0  0  0  0  0  0  0  0  0  0  0
    7.1719    1.8912   -0.1591 N   0  0  0  0  0  0  0  0  0  0  0  0
    6.1867    1.2894   -1.0338 C   0  0  0  0  0  0  0  0  0  0  0  0
    4.8698    1.9850   -0.8661 C   0  0  0  0  0  0  0  0  0  0  0  0
    3.7544    1.5197   -1.7064 C   0  0  0  0  0  0  0  0  0  0  0  0
    3.2961    0.1189   -1.5982 C   0  0  2  0  0  0  0  0  0  0  0  0
    2.8326   -0.3189   -0.3246 N   0  0  0  0  0  0  0  0  0  0  0  0
    1.4817   -0.7246   -0.0532 C   0  0  0  0  0  0  0  0  0  0  0  0
    0.7021   -0.6689   -1.0329 O   0  0  0  0  0  0  0  0  0  0  0  0
    1.0167   -1.1749    1.2514 C   0  0  2  0  0  0  0  0  0  0  0  0
    1.7588   -2.3280    1.8522 C   0  0  0  0  0  0  0  0  0  0  0  0
    1.1056   -3.5472    1.2531 C   0  0  0  0  0  0  0  0  0  0  0  0
   -0.0468   -3.0208    0.4210 C   0  0  0  0  0  0  0  0  0  0  0  0
   -0.3410   -1.7580    1.0562 N   0  0  0  0  0  0  0  0  0  0  0  0
   -1.5437   -1.1700    1.5115 C   0  0  0  0  0  0  0  0  0  0  0  0
   -1.2619   -0.1092    2.2639 O   0  0  0  0  0  0  0  0  0  0  0  0
   -2.9298   -1.4241    1.3779 C   0  0  1  0  0  0  0  0  0  0  0  0
   -3.6050   -2.3606    0.4636 C   0  0  0  0  0  0  0  0  0  0  0  0
   -3.5380   -2.1573   -0.9717 C   0  0  0  0  0  0  0  0  0  0  0  0
   -4.2953   -1.0751   -1.4860 C   0  0  0  0  0  0  0  0  0  0  0  0
   -4.3506   -0.8660   -2.8402 C   0  0  0  0  0  0  0  0  0  0  0  0
   -3.6735   -1.7035   -3.7007 C   0  0  0  0  0  0  0  0  0  0  0  0
   -2.9294   -2.7649   -3.2201 C   0  0  0  0  0  0  0  0  0  0  0  0
   -2.8825   -2.9662   -1.8359 C   0  0  0  0  0  0  0  0  0  0  0  0
   -3.5756   -1.3895    2.6520 N   0  0  0  0  0  0  0  0  0  0  0  0
   -4.7965   -0.3708    3.0285 S   0  0  0  0  0  0  0  0  0  0  0  0
   -5.2872   -0.7606    4.4607 O   0  0  0  0  0  0  0  0  0  0  0  0
   -6.0346   -0.7715    2.1857 O   0  0  0  0  0  0  0  0  0  0  0  0
   -4.7016    1.3454    3.0286 C   0  0  0  0  0  0  0  0  0  0  0  0
   -4.4156    2.0493    1.7617 C   0  0  0  0  0  0  0  0  0  0  0  0
   -5.4477    2.2027    0.8454 C   0  0  0  0  0  0  0  0  0  0  0  0
   -5.2507    2.9021   -0.3184 C   0  0  0  0  0  0  0  0  0  0  0  0
   -4.0307    3.4837   -0.6371 C   0  0  0  0  0  0  0  0  0  0  0  0
   -3.0123    3.3324    0.2672 C   0  0  0  0  0  0  0  0  0  0  0  0
   -3.2199    2.6324    1.4258 C   0  0  0  0  0  0  0  0  0  0  0  0
    4.1960   -0.8666   -2.2790 C   0  0  0  0  0  0  0  0  0  0  0  0
    4.4629   -1.9535   -1.7487 O   0  0  0  0  0  0  0  0  0  0  0  0
    6.8437    4.6734    0.9966 H   0  0  0  0  0  0  0  0  0  0  0  0
    8.5787    4.2739    1.1097 H   0  0  0  0  0  0  0  0  0  0  0  0
    8.2597    4.4245   -1.9532 H   0  0  0  0  0  0  0  0  0  0  0  0
    7.5449    1.3632    0.6378 H   0  0  0  0  0  0  0  0  0  0  0  0
    6.6015    1.3696   -2.0656 H   0  0  0  0  0  0  0  0  0  0  0  0
    6.0790    0.1933   -0.7762 H   0  0  0  0  0  0  0  0  0  0  0  0
    4.6590    1.9965    0.2252 H   0  0  0  0  0  0  0  0  0  0  0  0
    5.0202    3.0819   -1.1088 H   0  0  0  0  0  0  0  0  0  0  0  0
    4.0872    1.6507   -2.7851 H   0  0  0  0  0  0  0  0  0  0  0  0
    2.8797    2.2112   -1.6362 H   0  0  0  0  0  0  0  0  0  0  0  0
    2.3562    0.0791   -2.2674 H   0  0  0  0  0  0  0  0  0  0  0  0
    3.4827   -0.3616    0.4871 H   0  0  0  0  0  0  0  0  0  0  0  0
    0.9211   -0.3243    1.9850 H   0  0  0  0  0  0  0  0  0  0  0  0
    1.5669   -2.2884    2.9559 H   0  0  0  0  0  0  0  0  0  0  0  0
    2.8498   -2.2948    1.6536 H   0  0  0  0  0  0  0  0  0  0  0  0
    1.8176   -4.1318    0.6666 H   0  0  0  0  0  0  0  0  0  0  0  0
    0.7052   -4.1760    2.0845 H   0  0  0  0  0  0  0  0  0  0  0  0
    0.2646   -2.9636   -0.6199 H   0  0  0  0  0  0  0  0  0  0  0  0
   -0.9200   -3.7186    0.4689 H   0  0  0  0  0  0  0  0  0  0  0  0
   -3.3458   -0.3963    0.8500 H   0  0  0  0  0  0  0  0  0  0  0  0
   -4.7160   -2.3219    0.7286 H   0  0  0  0  0  0  0  0  0  0  0  0
   -3.3688   -3.4441    0.6938 H   0  0  0  0  0  0  0  0  0  0  0  0
   -4.7914   -0.4696   -0.7495 H   0  0  0  0  0  0  0  0  0  0  0  0
   -4.9426   -0.0213   -3.2127 H   0  0  0  0  0  0  0  0  0  0  0  0
   -3.7546   -1.4898   -4.7492 H   0  0  0  0  0  0  0  0  0  0  0  0
   -2.4141   -3.3967   -3.9187 H   0  0  0  0  0  0  0  0  0  0  0  0
   -2.3007   -3.8217   -1.4828 H   0  0  0  0  0  0  0  0  0  0  0  0
   -2.8669   -1.5862    3.3918 H   0  0  0  0  0  0  0  0  0  0  0  0
   -4.0582    1.7734    3.8466 H   0  0  0  0  0  0  0  0  0  0  0  0
   -5.7330    1.7362    3.3309 H   0  0  0  0  0  0  0  0  0  0  0  0
   -6.4244    1.7614    1.0542 H   0  0  0  0  0  0  0  0  0  0  0  0
   -6.0462    3.0430   -1.0641 H   0  0  0  0  0  0  0  0  0  0  0  0
   -3.9079    4.0291   -1.5659 H   0  0  0  0  0  0  0  0  0  0  0  0
   -2.0442    3.7870    0.0273 H   0  0  0  0  0  0  0  0  0  0  0  0
   -2.3844    2.5402    2.1180 H   0  0  0  0  0  0  0  0  0  0  0  0
    4.6423   -0.6801   -3.2392 H   0  0  0  0  0  0  0  0  0  0  0  0
  1  2  1  0
  2  3  2  3
  2  4  1  0
  4  5  1  0
  5  6  1  0
  6  7  1  0
  7  8  1  0
  8  9  1  0
  9 10  1  0
 10 11  2  0
 10 12  1  0
 12 13  1  0
 13 14  1  0
 14 15  1  0
 15 16  1  0
 16 17  1  0
 17 18  2  0
 17 19  1  0
 19 20  1  0
 20 21  1  0
 21 22  2  0
 22 23  1  0
 23 24  2  0
 24 25  1  0
 25 26  2  0
 19 27  1  0
 27 28  1  0
 28 29  2  0
 28 30  2  0
 28 31  1  0
 31 32  1  0
 32 33  2  0
 33 34  1  0
 34 35  2  0
 35 36  1  0
 36 37  2  0
  8 38  1  0
 38 39  2  0
 16 12  1  0
 26 21  1  0
 37 32  1  0
  1 40  1  0
  1 41  1  0
  3 42  1  0
  4 43  1  0
  5 44  1  0
  5 45  1  0
  6 46  1  0
  6 47  1  0
  7 48  1  0
  7 49  1  0
  8 50  1  6
  9 51  1  0
 12 52  1  1
 13 53  1  0
 13 54  1  0
 14 55  1  0
 14 56  1  0
 15 57  1  0
 15 58  1  0
 19 59  1  6
 20 60  1  0
 20 61  1  0
 22 62  1  0
 23 63  1  0
 24 64  1  0
 25 65  1  0
 26 66  1  0
 27 67  1  0
 31 68  1  0
 31 69  1  0
 33 70  1  0
 34 71  1  0
 35 72  1  0
 36 73  1  0
 37 74  1  0
 38 75  1  0
M  END
$$$$
[H]c1nc(N2C([H])([H])C([H])([H])c3nc(N4C([H])([H])C([H])([H])C([H])([H])C([H])([H])C4([H])[H])nc(N([H])c4nc([H])c(C(F)(F)F)c([H])c4[H])c3C([H])([H])C2([H])[H])c(C(F)(F)F)c([H])c1[H]
     RDKit          3D

 63 67  0  0  0  0  0  0  0  0999 V2000
    2.2779    7.9122    0.7391 F   0  0  0  0  0  0  0  0  0  0  0  0
    2.5542    7.0462   -0.3114 C   0  0  0  0  0  0  0  0  0  0  0  0
    3.8601    7.1367   -0.6464 F   0  0  0  0  0  0  0  0  0  0  0  0
    1.7381    7.4752   -1.3664 F   0  0  0  0  0  0  0  0  0  0  0  0
    2.0907    5.6910    0.0145 C   0  0  0  0  0  0  0  0  0  0  0  0
    2.3585    4.5944   -0.7890 C   0  0  0  0  0  0  0  0  0  0  0  0
    1.8769    3.3431   -0.4719 C   0  0  0  0  0  0  0  0  0  0  0  0
    1.1071    3.1545    0.6550 C   0  0  0  0  0  0  0  0  0  0  0  0
    0.4740    1.9642    0.9939 N   0  0  0  0  0  0  0  0  0  0  0  0
    0.6020    0.6468    0.5568 C   0  0  0  0  0  0  0  0  0  0  0  0
    1.7780    0.0880    0.2880 N   0  0  0  0  0  0  0  0  0  0  0  0
    1.9052   -1.2582    0.1050 C   0  0  0  0  0  0  0  0  0  0  0  0
    0.8428   -2.1028    0.1741 N   0  0  0  0  0  0  0  0  0  0  0  0
   -0.3607   -1.5882    0.4297 C   0  0  0  0  0  0  0  0  0  0  0  0
   -1.4420   -2.6380    0.3833 C   0  0  0  0  0  0  0  0  0  0  0  0
   -2.4079   -2.1800   -0.7082 C   0  0  0  0  0  0  0  0  0  0  0  0
   -3.1237   -1.0055   -0.3171 N   0  0  0  0  0  0  0  0  0  0  0  0
   -2.6815    0.3769   -0.3273 C   0  0  0  0  0  0  0  0  0  0  0  0
   -1.6886    0.5660    0.8612 C   0  0  0  0  0  0  0  0  0  0  0  0
   -0.4797   -0.2435    0.6237 C   0  0  0  0  0  0  0  0  0  0  0  0
   -4.4391   -1.1853    0.1715 C   0  0  0  0  0  0  0  0  0  0  0  0
   -4.5941   -1.5117    1.5133 N   0  0  0  0  0  0  0  0  0  0  0  0
   -5.7816   -1.7152    2.0713 C   0  0  0  0  0  0  0  0  0  0  0  0
   -6.8822   -1.5969    1.2557 C   0  0  0  0  0  0  0  0  0  0  0  0
   -6.7605   -1.2781   -0.0736 C   0  0  0  0  0  0  0  0  0  0  0  0
   -5.5163   -1.0572   -0.6617 C   0  0  0  0  0  0  0  0  0  0  0  0
   -5.4301   -0.6818   -2.0662 C   0  0  0  0  0  0  0  0  0  0  0  0
   -4.6893   -1.4857   -2.8730 F   0  0  0  0  0  0  0  0  0  0  0  0
   -5.1373    0.6488   -2.3215 F   0  0  0  0  0  0  0  0  0  0  0  0
   -6.7518   -0.8043   -2.6048 F   0  0  0  0  0  0  0  0  0  0  0  0
    3.1707   -1.9356   -0.0073 N   0  0  0  0  0  0  0  0  0  0  0  0
    4.2125   -1.4868    0.9160 C   0  0  0  0  0  0  0  0  0  0  0  0
    5.3517   -2.4792    0.9172 C   0  0  0  0  0  0  0  0  0  0  0  0
    5.8789   -2.6875   -0.4944 C   0  0  0  0  0  0  0  0  0  0  0  0
    4.8127   -3.1047   -1.4419 C   0  0  0  0  0  0  0  0  0  0  0  0
    3.4284   -2.9885   -0.9136 C   0  0  0  0  0  0  0  0  0  0  0  0
    0.8719    4.2571    1.4320 N   0  0  0  0  0  0  0  0  0  0  0  0
    1.3312    5.4819    1.1503 C   0  0  0  0  0  0  0  0  0  0  0  0
    2.9653    4.7641   -1.6921 H   0  0  0  0  0  0  0  0  0  0  0  0
    2.0993    2.5104   -1.1162 H   0  0  0  0  0  0  0  0  0  0  0  0
   -0.2382    2.0575    1.8268 H   0  0  0  0  0  0  0  0  0  0  0  0
   -1.0429   -3.6070    0.0823 H   0  0  0  0  0  0  0  0  0  0  0  0
   -1.8964   -2.6658    1.3696 H   0  0  0  0  0  0  0  0  0  0  0  0
   -1.7679   -1.9855   -1.6223 H   0  0  0  0  0  0  0  0  0  0  0  0
   -3.1026   -2.9661   -1.0016 H   0  0  0  0  0  0  0  0  0  0  0  0
   -2.1567    0.5996   -1.2678 H   0  0  0  0  0  0  0  0  0  0  0  0
   -3.4850    1.0713   -0.0710 H   0  0  0  0  0  0  0  0  0  0  0  0
   -1.5536    1.6372    0.8923 H   0  0  0  0  0  0  0  0  0  0  0  0
   -2.2177    0.1828    1.7437 H   0  0  0  0  0  0  0  0  0  0  0  0
   -5.8344   -1.9592    3.1039 H   0  0  0  0  0  0  0  0  0  0  0  0
   -7.8462   -1.7914    1.7293 H   0  0  0  0  0  0  0  0  0  0  0  0
   -7.6530   -1.1914   -0.6952 H   0  0  0  0  0  0  0  0  0  0  0  0
    3.7408   -1.5798    1.9555 H   0  0  0  0  0  0  0  0  0  0  0  0
    4.5111   -0.4551    0.7898 H   0  0  0  0  0  0  0  0  0  0  0  0
    5.0101   -3.4634    1.2861 H   0  0  0  0  0  0  0  0  0  0  0  0
    6.1989   -2.0501    1.5086 H   0  0  0  0  0  0  0  0  0  0  0  0
    6.6719   -3.4639   -0.4300 H   0  0  0  0  0  0  0  0  0  0  0  0
    6.3533   -1.6996   -0.7975 H   0  0  0  0  0  0  0  0  0  0  0  0
    4.9700   -4.1908   -1.7379 H   0  0  0  0  0  0  0  0  0  0  0  0
    4.8992   -2.4682   -2.3556 H   0  0  0  0  0  0  0  0  0  0  0  0
    3.1995   -3.9465   -0.3645 H   0  0  0  0  0  0  0  0  0  0  0  0
    2.6913   -3.0077   -1.7633 H   0  0  0  0  0  0  0  0  0  0  0  0
    1.1267    6.3007    1.7713 H   0  0  0  0  0  0  0  0  0  0  0  0
  1  2  1  0
  2  3  1  0
  2  4  1  0
  2  5  1  0
  5  6  2  0
  6  7  1  0
  7  8  2  0
  8  9  1  0
  9 10  1  0
 10 11  2  0
 11 12  1  0
 12 13  2  0
 13 14  1  0
 14 15  1  0
 15 16  1  0
 16 17  1  0
 17 18  1  0
 18 19  1  0
 19 20  1  0
 17 21  1  0
 21 22  2  0
 22 23  1  0
 23 24  2  0
 24 25  1  0
 25 26  2  0
 26 27  1  0
 27 28  1  0
 27 29  1  0
 27 30  1  0
 12 31  1  0
 31 32  1  0
 32 33  1  0
 33 34  1  0
 34 35  1  0
 35 36  1  0
  8 37  1  0
 37 38  2  0
 38  5  1  0
 20 10  1  0
 26 21  1  0
 36 31  1  0
 20 14  2  0
  6 39  1  0
  7 40  1  0
  9 41  1  0
 15 42  1  0
 15 43  1  0
 16 44  1  0
 16 45  1  0
 18 46  1  0
 18 47  1  0
 19 48  1  0
 19 49  1  0
 23 50  1  0
 24 51  1  0
 25 52  1  0
 32 53  1  0
 32 54  1  0
 33 55  1  0
 33 56  1  0
 34 57  1  0
 34 58  1  0
 35 59  1  0
 35 60  1  0
 36 61  1  0
 36 62  1  0
 38 63  1  0
M  END
$$$$
[H]c1nc(N([H])[H])c2c([H])c(-c3c([H])c(N([H])C(=O)c4c([H])c([H])c(C([H])([H])N5C([H])([H])C([H])([H])N(C([H])([H])[H])C([H])([H])C5([H])[H])c(C(F)(F)F)c4[H])c([H])c([H])c3C([H])([H])[H])c([H])n2n1
     RDKit          3D

 66 70  0  0  0  0  0  0  0  0999 V2000
    8.8489   -0.8656    1.2798 C   0  0  0  0  0  0  0  0  0  0  0  0
    7.4938   -0.3901    1.2839 N   0  0  0  0  0  0  0  0  0  0  0  0
    6.6526   -1.1095    2.1988 C   0  0  0  0  0  0  0  0  0  0  0  0
    5.1788   -0.7433    1.9586 C   0  0  0  0  0  0  0  0  0  0  0  0
    5.0903    0.6679    1.7882 N   0  0  0  0  0  0  0  0  0  0  0  0
    4.8880    1.1626    0.4824 C   0  0  0  0  0  0  0  0  0  0  0  0
    3.6138    0.8676   -0.1764 C   0  0  0  0  0  0  0  0  0  0  0  0
    2.6239    0.1849    0.4809 C   0  0  0  0  0  0  0  0  0  0  0  0
    1.3839   -0.1029   -0.0869 C   0  0  0  0  0  0  0  0  0  0  0  0
    1.1131    0.3067   -1.3672 C   0  0  0  0  0  0  0  0  0  0  0  0
    2.1051    0.9922   -2.0280 C   0  0  0  0  0  0  0  0  0  0  0  0
    3.3289    1.2748   -1.4656 C   0  0  0  0  0  0  0  0  0  0  0  0
    4.3263    2.0150   -2.2675 C   0  0  0  0  0  0  0  0  0  0  0  0
    3.7944    2.3216   -3.5286 F   0  0  0  0  0  0  0  0  0  0  0  0
    5.4500    1.2376   -2.5669 F   0  0  0  0  0  0  0  0  0  0  0  0
    4.6727    3.2353   -1.7231 F   0  0  0  0  0  0  0  0  0  0  0  0
   -0.1811    0.0468   -2.0290 C   0  0  0  0  0  0  0  0  0  0  0  0
   -0.1658    0.1445   -3.2694 O   0  0  0  0  0  0  0  0  0  0  0  0
   -1.2904   -0.2777   -1.2392 N   0  0  0  0  0  0  0  0  0  0  0  0
   -2.5660   -0.5515   -1.8006 C   0  0  0  0  0  0  0  0  0  0  0  0
   -2.7652   -0.9831   -3.0805 C   0  0  0  0  0  0  0  0  0  0  0  0
   -4.0621   -1.1897   -3.5241 C   0  0  0  0  0  0  0  0  0  0  0  0
   -5.1557   -0.9659   -2.6900 C   0  0  0  0  0  0  0  0  0  0  0  0
   -6.5457   -1.1958   -3.1712 C   0  0  0  0  0  0  0  0  0  0  0  0
   -4.9792   -0.5323   -1.3992 C   0  0  0  0  0  0  0  0  0  0  0  0
   -3.6920   -0.3339   -0.9796 C   0  0  0  0  0  0  0  0  0  0  0  0
   -6.1287   -0.2866   -0.5198 C   0  0  0  0  0  0  0  0  0  0  0  0
   -7.2793    0.3932   -0.7684 C   0  0  0  0  0  0  0  0  0  0  0  0
   -8.0285    0.3464    0.3435 N   0  0  0  0  0  0  0  0  0  0  0  0
   -9.2382    0.8449    0.6444 N   0  0  0  0  0  0  0  0  0  0  0  0
   -9.8122    0.6726    1.8513 C   0  0  0  0  0  0  0  0  0  0  0  0
   -9.1914   -0.0256    2.8479 N   0  0  0  0  0  0  0  0  0  0  0  0
   -7.9827   -0.5301    2.5634 C   0  0  0  0  0  0  0  0  0  0  0  0
   -7.2981   -1.2608    3.5622 N   0  0  0  0  0  0  0  0  0  0  0  0
   -7.4081   -0.3408    1.3118 C   0  0  0  0  0  0  0  0  0  0  0  0
   -6.2062   -0.7475    0.7818 C   0  0  0  0  0  0  0  0  0  0  0  0
    6.2234    1.3072    2.4057 C   0  0  0  0  0  0  0  0  0  0  0  0
    7.4775    1.0107    1.6460 C   0  0  0  0  0  0  0  0  0  0  0  0
    9.1373   -1.2962    0.2899 H   0  0  0  0  0  0  0  0  0  0  0  0
    9.5999   -0.0574    1.4697 H   0  0  0  0  0  0  0  0  0  0  0  0
    9.0165   -1.6521    2.0387 H   0  0  0  0  0  0  0  0  0  0  0  0
    6.7348   -2.2035    2.1036 H   0  0  0  0  0  0  0  0  0  0  0  0
    6.8718   -0.8732    3.2565 H   0  0  0  0  0  0  0  0  0  0  0  0
    4.7726   -1.3379    1.1189 H   0  0  0  0  0  0  0  0  0  0  0  0
    4.6449   -1.0998    2.8842 H   0  0  0  0  0  0  0  0  0  0  0  0
    4.9324    2.2959    0.5580 H   0  0  0  0  0  0  0  0  0  0  0  0
    5.7698    0.9006   -0.1527 H   0  0  0  0  0  0  0  0  0  0  0  0
    2.7226   -0.1795    1.5151 H   0  0  0  0  0  0  0  0  0  0  0  0
    0.6526   -0.6472    0.4849 H   0  0  0  0  0  0  0  0  0  0  0  0
    1.8912    1.3220   -3.0521 H   0  0  0  0  0  0  0  0  0  0  0  0
   -1.1982   -0.3266   -0.1644 H   0  0  0  0  0  0  0  0  0  0  0  0
   -1.9362   -1.1909   -3.7707 H   0  0  0  0  0  0  0  0  0  0  0  0
   -4.2335   -1.5339   -4.5437 H   0  0  0  0  0  0  0  0  0  0  0  0
   -6.9500   -0.3093   -3.6817 H   0  0  0  0  0  0  0  0  0  0  0  0
   -6.4425   -1.9661   -3.9980 H   0  0  0  0  0  0  0  0  0  0  0  0
   -7.2039   -1.6725   -2.4394 H   0  0  0  0  0  0  0  0  0  0  0  0
   -3.5073    0.0101    0.0379 H   0  0  0  0  0  0  0  0  0  0  0  0
   -7.5437    0.8892   -1.7056 H   0  0  0  0  0  0  0  0  0  0  0  0
  -10.7712    1.0865    2.0410 H   0  0  0  0  0  0  0  0  0  0  0  0
   -6.8674   -2.1942    3.3005 H   0  0  0  0  0  0  0  0  0  0  0  0
   -7.1831   -0.9503    4.5450 H   0  0  0  0  0  0  0  0  0  0  0  0
   -5.4468   -1.3395    1.3195 H   0  0  0  0  0  0  0  0  0  0  0  0
    6.3059    1.0696    3.4896 H   0  0  0  0  0  0  0  0  0  0  0  0
    6.0842    2.4197    2.3790 H   0  0  0  0  0  0  0  0  0  0  0  0
    7.4767    1.6026    0.6906 H   0  0  0  0  0  0  0  0  0  0  0  0
    8.3816    1.2861    2.2361 H   0  0  0  0  0  0  0  0  0  0  0  0
  1  2  1  0
  2  3  1  0
  3  4  1  0
  4  5  1  0
  5  6  1  0
  6  7  1  0
  7  8  2  0
  8  9  1  0
  9 10  2  0
 10 11  1  0
 11 12  2  0
 12 13  1  0
 13 14  1  0
 13 15  1  0
 13 16  1  0
 10 17  1  0
 17 18  2  0
 17 19  1  0
 19 20  1  0
 20 21  2  0
 21 22  1  0
 22 23  2  0
 23 24  1  0
 23 25  1  0
 25 26  2  0
 25 27  1  0
 27 28  2  0
 28 29  1  0
 29 30  1  0
 30 31  2  0
 31 32  1  0
 32 33  2  0
 33 34  1  0
 33 35  1  0
 35 36  2  0
  5 37  1  0
 37 38  1  0
 38  2  1  0
 12  7  1  0
 26 20  1  0
 36 27  1  0
 35 29  1  0
  1 39  1  0
  1 40  1  0
  1 41  1  0
  3 42  1  0
  3 43  1  0
  4 44  1  0
  4 45  1  0
  6 46  1  0
  6 47  1  0
  8 48  1  0
  9 49  1  0
 11 50  1  0
 19 51  1  0
 21 52  1  0
 22 53  1  0
 24 54  1  0
 24 55  1  0
 24 56  1  0
 26 57  1  0
 28 58  1  0
 31 59  1  0
 34 60  1  0
 34 61  1  0
 36 62  1  0
 37 63  1  0
 37 64  1  0
 38 65  1  0
 38 66  1  0
M  END
$$$$
[H]OC(=O)c1c([H])c([H])c(-c2c([H])c([H])c(N3C(=O)N(c4nc([H])nc(C([H])([H])[H])c4[H])C4(C3=O)C([H])([H])C([H])([H])N(C([H])([H])c3nc([H])c([H])c([H])c3C([H])([H])[H])C([H])([H])C4([H])[H])c([H])c2[H])c([H])c1[H]
     RDKit          3D

 72 77  0  0  0  0  0  0  0  0999 V2000
   -1.8046   -5.4926   -4.6748 C   0  0  0  0  0  0  0  0  0  0  0  0
   -1.9355   -4.0279   -4.4619 C   0  0  0  0  0  0  0  0  0  0  0  0
   -1.2763   -3.3424   -3.4650 C   0  0  0  0  0  0  0  0  0  0  0  0
   -1.4052   -1.9848   -3.2802 C   0  0  0  0  0  0  0  0  0  0  0  0
   -2.2172   -1.3221   -4.1240 N   0  0  0  0  0  0  0  0  0  0  0  0
   -2.8759   -1.9686   -5.1105 C   0  0  0  0  0  0  0  0  0  0  0  0
   -2.7370   -3.2978   -5.2759 N   0  0  0  0  0  0  0  0  0  0  0  0
   -0.7486   -1.2404   -2.2739 N   0  0  0  0  0  0  0  0  0  0  0  0
    0.6480   -0.9146   -2.2413 C   0  0  0  0  0  0  0  0  0  0  0  0
    1.3901   -0.8522   -3.2549 O   0  0  0  0  0  0  0  0  0  0  0  0
    1.0570   -0.6742   -0.8807 N   0  0  0  0  0  0  0  0  0  0  0  0
   -0.1587   -0.8757   -0.1225 C   0  0  0  0  0  0  0  0  0  0  0  0
   -0.2195   -1.1982    1.0816 O   0  0  0  0  0  0  0  0  0  0  0  0
   -1.2731   -0.6237   -1.0620 C   0  0  0  0  0  0  0  0  0  0  0  0
   -1.3976    0.8646   -1.2976 C   0  0  0  0  0  0  0  0  0  0  0  0
   -2.8056    1.3401   -0.9760 C   0  0  0  0  0  0  0  0  0  0  0  0
   -3.1902    0.9255    0.3609 N   0  0  0  0  0  0  0  0  0  0  0  0
   -4.4417    1.5568    0.6510 C   0  0  0  0  0  0  0  0  0  0  0  0
   -5.0057    1.2849    1.9654 C   0  0  0  0  0  0  0  0  0  0  0  0
   -4.3909    0.5065    2.8469 N   0  0  0  0  0  0  0  0  0  0  0  0
   -4.8959    0.2541    4.0564 C   0  0  0  0  0  0  0  0  0  0  0  0
   -6.0902    0.8049    4.4284 C   0  0  0  0  0  0  0  0  0  0  0  0
   -6.7728    1.6154    3.5657 C   0  0  0  0  0  0  0  0  0  0  0  0
   -6.2093    1.8492    2.3196 C   0  0  0  0  0  0  0  0  0  0  0  0
   -6.9184    2.7215    1.3555 C   0  0  0  0  0  0  0  0  0  0  0  0
   -3.1369   -0.4800    0.5489 C   0  0  0  0  0  0  0  0  0  0  0  0
   -2.5844   -1.1867   -0.6533 C   0  0  0  0  0  0  0  0  0  0  0  0
    2.3392   -0.3155   -0.3885 C   0  0  0  0  0  0  0  0  0  0  0  0
    2.4611    0.7723    0.4713 C   0  0  0  0  0  0  0  0  0  0  0  0
    3.6887    1.1480    0.9539 C   0  0  0  0  0  0  0  0  0  0  0  0
    4.8302    0.4590    0.5999 C   0  0  0  0  0  0  0  0  0  0  0  0
    4.7498   -0.6236   -0.2492 C   0  0  0  0  0  0  0  0  0  0  0  0
    3.4958   -0.9855   -0.7250 C   0  0  0  0  0  0  0  0  0  0  0  0
    6.1052    0.9300    1.1586 C   0  0  0  0  0  0  0  0  0  0  0  0
    6.3303    2.2631    1.4311 C   0  0  0  0  0  0  0  0  0  0  0  0
    7.5327    2.7248    1.9594 C   0  0  0  0  0  0  0  0  0  0  0  0
    8.5552    1.8334    2.2298 C   0  0  0  0  0  0  0  0  0  0  0  0
    8.3222    0.5036    1.9548 C   0  0  0  0  0  0  0  0  0  0  0  0
    7.1265    0.0438    1.4292 C   0  0  0  0  0  0  0  0  0  0  0  0
    9.8315    2.2654    2.7815 C   0  0  0  0  0  0  0  0  0  0  0  0
   10.8026    1.3105    3.0282 O   0  0  0  0  0  0  0  0  0  0  0  0
   10.0950    3.4616    3.0449 O   0  0  0  0  0  0  0  0  0  0  0  0
   -1.6810   -6.0233   -3.7101 H   0  0  0  0  0  0  0  0  0  0  0  0
   -0.8380   -5.6339   -5.2178 H   0  0  0  0  0  0  0  0  0  0  0  0
   -2.6260   -5.9143   -5.2536 H   0  0  0  0  0  0  0  0  0  0  0  0
   -0.6373   -3.8939   -2.8081 H   0  0  0  0  0  0  0  0  0  0  0  0
   -3.5223   -1.3999   -5.7716 H   0  0  0  0  0  0  0  0  0  0  0  0
   -0.6881    1.4435   -0.6844 H   0  0  0  0  0  0  0  0  0  0  0  0
   -1.1979    1.0799   -2.3505 H   0  0  0  0  0  0  0  0  0  0  0  0
   -3.4925    0.9850   -1.7564 H   0  0  0  0  0  0  0  0  0  0  0  0
   -2.7617    2.4570   -1.0414 H   0  0  0  0  0  0  0  0  0  0  0  0
   -5.1434    1.2884   -0.1930 H   0  0  0  0  0  0  0  0  0  0  0  0
   -4.2809    2.6570    0.5038 H   0  0  0  0  0  0  0  0  0  0  0  0
   -4.3633   -0.3907    4.7573 H   0  0  0  0  0  0  0  0  0  0  0  0
   -6.4911    0.5872    5.4261 H   0  0  0  0  0  0  0  0  0  0  0  0
   -7.7127    2.0537    3.8466 H   0  0  0  0  0  0  0  0  0  0  0  0
   -6.9262    2.2682    0.3277 H   0  0  0  0  0  0  0  0  0  0  0  0
   -7.9831    2.7648    1.6562 H   0  0  0  0  0  0  0  0  0  0  0  0
   -6.4658    3.7343    1.2836 H   0  0  0  0  0  0  0  0  0  0  0  0
   -4.1908   -0.8647    0.6722 H   0  0  0  0  0  0  0  0  0  0  0  0
   -2.5625   -0.6867    1.4699 H   0  0  0  0  0  0  0  0  0  0  0  0
   -2.5465   -2.2955   -0.5053 H   0  0  0  0  0  0  0  0  0  0  0  0
   -3.2848   -1.0277   -1.5237 H   0  0  0  0  0  0  0  0  0  0  0  0
    1.5591    1.3110    0.7460 H   0  0  0  0  0  0  0  0  0  0  0  0
    3.7590    1.9877    1.6150 H   0  0  0  0  0  0  0  0  0  0  0  0
    5.6472   -1.1633   -0.5265 H   0  0  0  0  0  0  0  0  0  0  0  0
    3.3862   -1.8293   -1.3952 H   0  0  0  0  0  0  0  0  0  0  0  0
    5.5405    2.9664    1.2234 H   0  0  0  0  0  0  0  0  0  0  0  0
    7.7002    3.7823    2.1718 H   0  0  0  0  0  0  0  0  0  0  0  0
    9.1112   -0.1987    2.1617 H   0  0  0  0  0  0  0  0  0  0  0  0
    6.9318   -0.9949    1.2093 H   0  0  0  0  0  0  0  0  0  0  0  0
   10.8907    0.9180    3.9617 H   0  0  0  0  0  0  0  0  0  0  0  0
  1  2  1  0
  2  3  2  0
  3  4  1  0
  4  5  2  0
  5  6  1  0
  6  7  2  0
  4  8  1  0
  8  9  1  0
  9 10  2  0
  9 11  1  0
 11 12  1  0
 12 13  2  0
 12 14  1  0
 14 15  1  0
 15 16  1  0
 16 17  1  0
 17 18  1  0
 18 19  1  0
 19 20  2  0
 20 21  1  0
 21 22  2  0
 22 23  1  0
 23 24  2  0
 24 25  1  0
 17 26  1  0
 26 27  1  0
 11 28  1  0
 28 29  2  0
 29 30  1  0
 30 31  2  0
 31 32  1  0
 32 33  2  0
 31 34  1  0
 34 35  2  0
 35 36  1  0
 36 37  2  0
 37 38  1  0
 38 39  2  0
 37 40  1  0
 40 41  1  0
 40 42  2  0
  7  2  1  0
 14  8  1  0
 27 14  1  0
 33 28  1  0
 39 34  1  0
 24 19  1  0
  1 43  1  0
  1 44  1  0
  1 45  1  0
  3 46  1  0
  6 47  1  0
 15 48  1  0
 15 49  1  0
 16 50  1  0
 16 51  1  0
 18 52  1  0
 18 53  1  0
 21 54  1  0
 22 55  1  0
 23 56  1  0
 25 57  1  0
 25 58  1  0
 25 59  1  0
 26 60  1  0
 26 61  1  0
 27 62  1  0
 27 63  1  0
 29 64  1  0
 30 65  1  0
 32 66  1  0
 33 67  1  0
 35 68  1  0
 36 69  1  0
 38 70  1  0
 39 71  1  0
 41 72  1  0
M  END
$$$$
[H]c1nc2c(nc([H])c(=O)n2[H])c(Oc2c([H])c([H])c(N([H])C(=O)N([H])c3c([H])c(C(C([H])([H])[H])(C([H])([H])[H])C([H])([H])[H])nn3-c3c([H])c([H])c(OC([H])([H])[H])c([H])c3[H])c3c([H])c([H])c([H])c([H])c23)c1[H]
     RDKit          3D

 72 77  0  0  0  0  0  0  0  0999 V2000
   -5.1485    6.2319   -1.4754 C   0  0  0  0  0  0  0  0  0  0  0  0
   -5.2814    5.0522   -2.2976 O   0  0  0  0  0  0  0  0  0  0  0  0
   -5.0233    3.8127   -1.7209 C   0  0  0  0  0  0  0  0  0  0  0  0
   -4.6121    3.6866   -0.4155 C   0  0  0  0  0  0  0  0  0  0  0  0
   -4.3702    2.4664    0.1584 C   0  0  0  0  0  0  0  0  0  0  0  0
   -4.5135    1.3176   -0.5218 C   0  0  0  0  0  0  0  0  0  0  0  0
   -4.9297    1.4170   -1.8771 C   0  0  0  0  0  0  0  0  0  0  0  0
   -5.1767    2.6579   -2.4504 C   0  0  0  0  0  0  0  0  0  0  0  0
   -4.3540    0.0232    0.0620 N   0  0  0  0  0  0  0  0  0  0  0  0
   -5.4522   -0.7221    0.2962 N   0  0  0  0  0  0  0  0  0  0  0  0
   -5.1548   -1.8679    0.8495 C   0  0  0  0  0  0  0  0  0  0  0  0
   -3.7813   -1.8573    0.9863 C   0  0  0  0  0  0  0  0  0  0  0  0
   -3.2545   -0.6207    0.4671 C   0  0  0  0  0  0  0  0  0  0  0  0
   -1.8810   -0.4983    0.3884 N   0  0  0  0  0  0  0  0  0  0  0  0
   -1.0655    0.3675   -0.4308 C   0  0  0  0  0  0  0  0  0  0  0  0
   -1.6012    1.1091   -1.2349 O   0  0  0  0  0  0  0  0  0  0  0  0
    0.3158    0.3383   -0.2974 N   0  0  0  0  0  0  0  0  0  0  0  0
    1.6429    0.3157   -0.1752 C   0  0  0  0  0  0  0  0  0  0  0  0
    2.4008    1.4529   -0.5463 C   0  0  0  0  0  0  0  0  0  0  0  0
    3.7237    1.5280   -0.3982 C   0  0  0  0  0  0  0  0  0  0  0  0
    4.4334    0.4368    0.1503 C   0  0  0  0  0  0  0  0  0  0  0  0
    5.7870    0.6864    0.2057 O   0  0  0  0  0  0  0  0  0  0  0  0
    6.7849    0.1516   -0.5506 C   0  0  0  0  0  0  0  0  0  0  0  0
    6.6911   -0.8769   -1.4339 C   0  0  0  0  0  0  0  0  0  0  0  0
    7.7958   -1.3436   -2.1707 C   0  0  0  0  0  0  0  0  0  0  0  0
    8.9621   -0.7415   -1.9867 N   0  0  0  0  0  0  0  0  0  0  0  0
    9.1116    0.2926   -1.1223 C   0  0  0  0  0  0  0  0  0  0  0  0
   10.3210    0.8882   -1.0250 N   0  0  0  0  0  0  0  0  0  0  0  0
   10.4976    1.9366   -0.2032 C   0  0  0  0  0  0  0  0  0  0  0  0
   11.6159    2.5067   -0.1157 O   0  0  0  0  0  0  0  0  0  0  0  0
    9.3915    2.3905    0.5414 C   0  0  0  0  0  0  0  0  0  0  0  0
    8.2003    1.7984    0.4356 N   0  0  0  0  0  0  0  0  0  0  0  0
    8.0489    0.7509   -0.3982 C   0  0  0  0  0  0  0  0  0  0  0  0
    3.7456   -0.6530    0.5200 C   0  0  0  0  0  0  0  0  0  0  0  0
    4.4464   -1.7085    1.0917 C   0  0  0  0  0  0  0  0  0  0  0  0
    3.8154   -2.8434    1.5129 C   0  0  0  0  0  0  0  0  0  0  0  0
    2.4597   -2.9194    1.3651 C   0  0  0  0  0  0  0  0  0  0  0  0
    1.7586   -1.8812    0.8004 C   0  0  0  0  0  0  0  0  0  0  0  0
    2.3677   -0.7263    0.3660 C   0  0  0  0  0  0  0  0  0  0  0  0
   -6.0302   -3.0302    1.2522 C   0  0  0  0  0  0  0  0  0  0  0  0
   -7.3181   -3.0055    0.4272 C   0  0  0  0  0  0  0  0  0  0  0  0
   -5.3302   -4.3405    0.9722 C   0  0  0  0  0  0  0  0  0  0  0  0
   -6.3821   -2.9770    2.6908 C   0  0  0  0  0  0  0  0  0  0  0  0
   -4.1233    6.4052   -1.1982 H   0  0  0  0  0  0  0  0  0  0  0  0
   -5.4299    7.0810   -2.1572 H   0  0  0  0  0  0  0  0  0  0  0  0
   -5.7751    6.1634   -0.5693 H   0  0  0  0  0  0  0  0  0  0  0  0
   -4.4773    4.6434    0.1192 H   0  0  0  0  0  0  0  0  0  0  0  0
   -4.0775    2.4880    1.2003 H   0  0  0  0  0  0  0  0  0  0  0  0
   -5.0460    0.4887   -2.3927 H   0  0  0  0  0  0  0  0  0  0  0  0
   -5.5186    2.6876   -3.4862 H   0  0  0  0  0  0  0  0  0  0  0  0
   -3.2396   -2.6523    1.4112 H   0  0  0  0  0  0  0  0  0  0  0  0
   -1.3295   -1.1379    1.0767 H   0  0  0  0  0  0  0  0  0  0  0  0
    0.4301    0.7515   -1.6111 H   0  0  0  0  0  0  0  0  0  0  0  0
    1.8307    2.2987   -0.9775 H   0  0  0  0  0  0  0  0  0  0  0  0
    4.3120    2.3972   -0.6848 H   0  0  0  0  0  0  0  0  0  0  0  0
    5.7565   -1.3432   -1.6231 H   0  0  0  0  0  0  0  0  0  0  0  0
    7.6624   -2.1662   -2.8732 H   0  0  0  0  0  0  0  0  0  0  0  0
   11.1207    0.5356   -1.5878 H   0  0  0  0  0  0  0  0  0  0  0  0
    9.5921    3.2252    1.1754 H   0  0  0  0  0  0  0  0  0  0  0  0
    5.5308   -1.6576    1.2623 H   0  0  0  0  0  0  0  0  0  0  0  0
    4.3610   -3.6651    1.9604 H   0  0  0  0  0  0  0  0  0  0  0  0
    1.8941   -3.7528    1.6919 H   0  0  0  0  0  0  0  0  0  0  0  0
    0.7028   -1.9648    0.6647 H   0  0  0  0  0  0  0  0  0  0  0  0
   -7.9166   -3.9099    0.6408 H   0  0  0  0  0  0  0  0  0  0  0  0
   -7.0866   -2.8670   -0.6285 H   0  0  0  0  0  0  0  0  0  0  0  0
   -7.9428   -2.1561    0.7466 H   0  0  0  0  0  0  0  0  0  0  0  0
   -4.3061   -4.3632    1.4266 H   0  0  0  0  0  0  0  0  0  0  0  0
   -5.1869   -4.4345   -0.1227 H   0  0  0  0  0  0  0  0  0  0  0  0
   -5.8896   -5.1825    1.3920 H   0  0  0  0  0  0  0  0  0  0  0  0
   -6.5953   -3.9989    3.0352 H   0  0  0  0  0  0  0  0  0  0  0  0
   -7.3316   -2.3635    2.8482 H   0  0  0  0  0  0  0  0  0  0  0  0
   -5.5784   -2.5527    3.3106 H   0  0  0  0  0  0  0  0  0  0  0  0
  1  2  1  0
  2  3  1  0
  3  4  2  0
  4  5  1  0
  5  6  2  0
  6  7  1  0
  7  8  2  0
  6  9  1  0
  9 10  1  0
 10 11  2  0
 11 12  1  0
 12 13  2  0
 13 14  1  0
 14 15  1  0
 15 16  2  0
 15 17  1  0
 17 18  1  0
 18 19  2  0
 19 20  1  0
 20 21  2  0
 21 22  1  0
 22 23  1  0
 23 24  2  0
 24 25  1  0
 25 26  2  0
 26 27  1  0
 27 28  1  0
 28 29  1  0
 29 30  2  0
 29 31  1  0
 31 32  2  0
 32 33  1  0
 21 34  1  0
 34 35  2  0
 35 36  1  0
 36 37  2  0
 37 38  1  0
 38 39  2  0
 11 40  1  0
 40 41  1  0
 40 42  1  0
 40 43  1  0
  8  3  1  0
 13  9  1  0
 39 18  1  0
 33 23  1  0
 39 34  1  0
 33 27  2  0
  1 44  1  0
  1 45  1  0
  1 46  1  0
  4 47  1  0
  5 48  1  0
  7 49  1  0
  8 50  1  0
 12 51  1  0
 14 52  1  0
 17 53  1  0
 19 54  1  0
 20 55  1  0
 24 56  1  0
 25 57  1  0
 28 58  1  0
 31 59  1  0
 35 60  1  0
 36 61  1  0
 37 62  1  0
 38 63  1  0
 41 64  1  0
 41 65  1  0
 41 66  1  0
 42 67  1  0
 42 68  1  0
 42 69  1  0
 43 70  1  0
 43 71  1  0
 43 72  1  0
M  END
$$$$
[H]OC(=O)c1c([H])nc(-c2c([H])nc(C([H])([H])[H])nc2OC([H])([H])[C@@]2([H])C([H])([H])[C@]2([H])c2nc([H])c(OC([H])([H])[H])c([H])c2[H])c([H])c1[H]
     RDKit          3D

 49 52  0  0  0  0  0  0  0  0999 V2000
    7.0852   -1.1026   -2.6909 C   0  0  0  0  0  0  0  0  0  0  0  0
    7.1144   -0.4545   -1.4355 O   0  0  0  0  0  0  0  0  0  0  0  0
    5.9610    0.0427   -0.8519 C   0  0  0  0  0  0  0  0  0  0  0  0
    4.7413   -0.0782   -1.4799 C   0  0  0  0  0  0  0  0  0  0  0  0
    3.6160    0.4427   -0.8409 C   0  0  0  0  0  0  0  0  0  0  0  0
    3.6952    1.0650    0.3842 C   0  0  0  0  0  0  0  0  0  0  0  0
    4.8997    1.1644    0.9657 N   0  0  0  0  0  0  0  0  0  0  0  0
    6.0129    0.6731    0.3794 C   0  0  0  0  0  0  0  0  0  0  0  0
    2.4368    1.5785    0.9664 C   0  0  1  0  0  0  0  0  0  0  0  0
    1.5442    2.2755   -0.0638 C   0  0  0  0  0  0  0  0  0  0  0  0
    1.1308    0.9847    0.6118 C   0  0  2  0  0  0  0  0  0  0  0  0
    0.0194    1.1456    1.6207 C   0  0  0  0  0  0  0  0  0  0  0  0
   -1.1924    0.5758    1.2528 O   0  0  0  0  0  0  0  0  0  0  0  0
   -1.4656   -0.7389    0.9775 C   0  0  0  0  0  0  0  0  0  0  0  0
   -0.4514   -1.6537    1.0608 N   0  0  0  0  0  0  0  0  0  0  0  0
   -0.6381   -2.9471    0.8068 C   0  0  0  0  0  0  0  0  0  0  0  0
    0.4959   -3.9278    0.9073 C   0  0  0  0  0  0  0  0  0  0  0  0
   -1.8668   -3.3560    0.4583 N   0  0  0  0  0  0  0  0  0  0  0  0
   -2.8805   -2.4981    0.3661 C   0  0  0  0  0  0  0  0  0  0  0  0
   -2.7208   -1.1220    0.6276 C   0  0  0  0  0  0  0  0  0  0  0  0
   -3.8866   -0.2489    0.4845 C   0  0  0  0  0  0  0  0  0  0  0  0
   -3.9297    1.0578    0.8457 C   0  0  0  0  0  0  0  0  0  0  0  0
   -5.0785    1.8489    0.7047 C   0  0  0  0  0  0  0  0  0  0  0  0
   -6.2012    1.2752    0.1809 C   0  0  0  0  0  0  0  0  0  0  0  0
   -6.1150   -0.0438   -0.1696 C   0  0  0  0  0  0  0  0  0  0  0  0
   -5.0310   -0.7909   -0.0370 N   0  0  0  0  0  0  0  0  0  0  0  0
   -7.4349    2.0533    0.0094 C   0  0  0  0  0  0  0  0  0  0  0  0
   -8.5759    1.4968   -0.5166 O   0  0  0  0  0  0  0  0  0  0  0  0
   -7.4395    3.2615    0.3558 O   0  0  0  0  0  0  0  0  0  0  0  0
    6.6880   -2.1248   -2.5751 H   0  0  0  0  0  0  0  0  0  0  0  0
    6.4539   -0.5465   -3.3929 H   0  0  0  0  0  0  0  0  0  0  0  0
    8.1285   -1.1890   -3.1060 H   0  0  0  0  0  0  0  0  0  0  0  0
    4.6504   -0.5672   -2.4505 H   0  0  0  0  0  0  0  0  0  0  0  0
    2.6802    0.3303   -1.3610 H   0  0  0  0  0  0  0  0  0  0  0  0
    6.9910    0.7442    0.8312 H   0  0  0  0  0  0  0  0  0  0  0  0
    2.5480    2.0489    1.9513 H   0  0  0  0  0  0  0  0  0  0  0  0
    1.1209    3.2287    0.2975 H   0  0  0  0  0  0  0  0  0  0  0  0
    1.8131    2.2244   -1.1173 H   0  0  0  0  0  0  0  0  0  0  0  0
    1.0478    0.1146   -0.0604 H   0  0  0  0  0  0  0  0  0  0  0  0
    0.4058    0.7729    2.5963 H   0  0  0  0  0  0  0  0  0  0  0  0
   -0.1888    2.2392    1.8173 H   0  0  0  0  0  0  0  0  0  0  0  0
    0.5166   -4.3459    1.9317 H   0  0  0  0  0  0  0  0  0  0  0  0
    1.4360   -3.4076    0.6993 H   0  0  0  0  0  0  0  0  0  0  0  0
    0.3063   -4.7155    0.1776 H   0  0  0  0  0  0  0  0  0  0  0  0
   -3.8899   -2.8162    0.0837 H   0  0  0  0  0  0  0  0  0  0  0  0
   -3.0755    1.5801    1.2821 H   0  0  0  0  0  0  0  0  0  0  0  0
   -5.0842    2.8817    0.9990 H   0  0  0  0  0  0  0  0  0  0  0  0
   -7.0249   -0.4818   -0.5858 H   0  0  0  0  0  0  0  0  0  0  0  0
   -9.3687    2.0506   -0.7317 H   0  0  0  0  0  0  0  0  0  0  0  0
  1  2  1  0
  2  3  1  0
  3  4  2  0
  4  5  1  0
  5  6  2  0
  6  7  1  0
  7  8  2  0
  6  9  1  0
  9 10  1  0
 10 11  1  0
 11 12  1  0
 12 13  1  0
 13 14  1  0
 14 15  2  0
 15 16  1  0
 16 17  1  0
 16 18  2  0
 18 19  1  0
 19 20  2  0
 20 21  1  0
 21 22  2  0
 22 23  1  0
 23 24  2  0
 24 25  1  0
 25 26  2  0
 24 27  1  0
 27 28  1  0
 27 29  2  0
  8  3  1  0
 11  9  1  0
 20 14  1  0
 26 21  1  0
  1 30  1  0
  1 31  1  0
  1 32  1  0
  4 33  1  0
  5 34  1  0
  8 35  1  0
  9 36  1  1
 10 37  1  0
 10 38  1  0
 11 39  1  6
 12 40  1  0
 12 41  1  0
 17 42  1  0
 17 43  1  0
 17 44  1  0
 19 45  1  0
 22 46  1  0
 23 47  1  0
 25 48  1  0
 28 49  1  0
M  END
$$$$
[H]OC(=O)C([H])([H])C([H])([H])[C@@]([H])(C(=O)N([H])[C@]([H])(C(=O)N([H])[C@]([H])(C(=O)N([H])[C@]([H])(C(=O)N([H])[C@]([H])(C(=O)N([H])[C@]([H])(C(=O)N([H])[H])C([H])([H])c1c([H])nc([H])n1[H])C([H])([H])C([H])([H])C(=O)N([H])[H])C([H])([H])c1c([H])c([H])c([H])c([H])c1[H])C([H])([H])C([H])(C([H])([H])[H])C([H])([H])[H])C([H])([H])C([H])([H])C(=O)N([H])[H])N([H])[H]
     RDKit          3D

110111  0  0  0  0  0  0  0  0999 V2000
    1.7752   -6.0402    0.4867 C   0  0  0  0  0  0  0  0  0  0  0  0
    1.3581   -4.6732   -0.1723 C   0  0  0  0  0  0  0  0  0  0  0  0
   -0.0761   -4.5067    0.3095 C   0  0  0  0  0  0  0  0  0  0  0  0
    2.2855   -3.6464    0.3146 C   0  0  0  0  0  0  0  0  0  0  0  0
    2.3059   -2.2597   -0.0774 C   0  0  2  0  0  0  0  0  0  0  0  0
    3.4182   -1.6512    0.7309 N   0  0  0  0  0  0  0  0  0  0  0  0
    4.4676   -0.9349    0.1385 C   0  0  0  0  0  0  0  0  0  0  0  0
    4.4769   -0.7922   -1.1093 O   0  0  0  0  0  0  0  0  0  0  0  0
    5.5753   -0.3306    0.9161 C   0  0  2  0  0  0  0  0  0  0  0  0
    5.2331   -0.1011    2.3498 C   0  0  0  0  0  0  0  0  0  0  0  0
    6.3409    0.5269    3.1532 C   0  0  0  0  0  0  0  0  0  0  0  0
    7.5733   -0.2417    3.2619 C   0  0  0  0  0  0  0  0  0  0  0  0
    8.7190    0.3566    3.9055 N   0  0  0  0  0  0  0  0  0  0  0  0
    7.7305   -1.4053    2.8388 O   0  0  0  0  0  0  0  0  0  0  0  0
    6.0656    0.8754    0.3329 N   0  0  0  0  0  0  0  0  0  0  0  0
    7.3087    0.9347   -0.2916 C   0  0  0  0  0  0  0  0  0  0  0  0
    8.0280   -0.0836   -0.3603 O   0  0  0  0  0  0  0  0  0  0  0  0
    7.8498    2.2064   -0.9080 C   0  0  1  0  0  0  0  0  0  0  0  0
    9.1368    1.8429   -1.4880 N   0  0  0  0  0  0  0  0  0  0  0  0
    6.9546    2.7076   -1.9876 C   0  0  0  0  0  0  0  0  0  0  0  0
    7.4471    3.9806   -2.5901 C   0  0  0  0  0  0  0  0  0  0  0  0
    8.7693    3.9590   -3.2008 C   0  0  0  0  0  0  0  0  0  0  0  0
    8.9429    3.3830   -4.4462 O   0  0  0  0  0  0  0  0  0  0  0  0
    9.7748    4.4524   -2.6241 O   0  0  0  0  0  0  0  0  0  0  0  0
    1.1779   -1.3719   -0.0987 C   0  0  0  0  0  0  0  0  0  0  0  0
    1.2416   -0.3670    0.7216 O   0  0  0  0  0  0  0  0  0  0  0  0
   -0.0088   -1.4197   -0.9068 N   0  0  0  0  0  0  0  0  0  0  0  0
   -1.0200   -0.4432   -0.8382 C   0  0  1  0  0  0  0  0  0  0  0  0
   -1.1668    0.3017   -2.1880 C   0  0  0  0  0  0  0  0  0  0  0  0
   -1.5253   -0.5858   -3.2858 C   0  0  0  0  0  0  0  0  0  0  0  0
   -2.8150   -0.9009   -3.6633 C   0  0  0  0  0  0  0  0  0  0  0  0
   -3.1330   -1.7597   -4.7129 C   0  0  0  0  0  0  0  0  0  0  0  0
   -2.1265   -2.3272   -5.4143 C   0  0  0  0  0  0  0  0  0  0  0  0
   -0.8153   -2.0405   -5.0741 C   0  0  0  0  0  0  0  0  0  0  0  0
   -0.5239   -1.1862   -4.0302 C   0  0  0  0  0  0  0  0  0  0  0  0
   -2.4220   -0.9116   -0.5260 C   0  0  0  0  0  0  0  0  0  0  0  0
   -2.7247   -2.0534   -0.8847 O   0  0  0  0  0  0  0  0  0  0  0  0
   -3.2600   -0.0239    0.1238 N   0  0  0  0  0  0  0  0  0  0  0  0
   -4.5962    0.0760    0.5657 C   0  0  1  0  0  0  0  0  0  0  0  0
   -5.0823   -0.7187    1.7245 C   0  0  0  0  0  0  0  0  0  0  0  0
   -5.0407   -2.2047    1.5196 C   0  0  0  0  0  0  0  0  0  0  0  0
   -5.6911   -2.8965    2.6758 C   0  0  0  0  0  0  0  0  0  0  0  0
   -6.1329   -4.2117    2.5571 N   0  0  0  0  0  0  0  0  0  0  0  0
   -5.8216   -2.2565    3.7381 O   0  0  0  0  0  0  0  0  0  0  0  0
   -4.9497    1.5195    0.7269 C   0  0  0  0  0  0  0  0  0  0  0  0
   -4.0618    2.3593    0.4260 O   0  0  0  0  0  0  0  0  0  0  0  0
   -6.1896    1.9887    1.1954 N   0  0  0  0  0  0  0  0  0  0  0  0
   -6.3908    3.4024    1.3390 C   0  0  1  0  0  0  0  0  0  0  0  0
   -7.4572    4.0444    0.5555 C   0  0  0  0  0  0  0  0  0  0  0  0
   -8.8300    3.6273    0.7685 C   0  0  0  0  0  0  0  0  0  0  0  0
   -9.8923    4.1749    0.0411 C   0  0  0  0  0  0  0  0  0  0  0  0
  -11.0245    3.5838    0.4877 N   0  0  0  0  0  0  0  0  0  0  0  0
  -10.7171    2.7151    1.4365 C   0  0  0  0  0  0  0  0  0  0  0  0
   -9.3634    2.7586    1.5932 N   0  0  0  0  0  0  0  0  0  0  0  0
   -6.4902    3.6987    2.8023 C   0  0  0  0  0  0  0  0  0  0  0  0
   -6.6762    4.9912    3.3384 N   0  0  0  0  0  0  0  0  0  0  0  0
   -6.4066    2.7599    3.6303 O   0  0  0  0  0  0  0  0  0  0  0  0
    2.6934   -6.4121   -0.0215 H   0  0  0  0  0  0  0  0  0  0  0  0
    0.8980   -6.6878    0.3362 H   0  0  0  0  0  0  0  0  0  0  0  0
    1.9050   -5.8360    1.5503 H   0  0  0  0  0  0  0  0  0  0  0  0
    1.3407   -4.8771   -1.2316 H   0  0  0  0  0  0  0  0  0  0  0  0
   -0.4260   -5.4829    0.7047 H   0  0  0  0  0  0  0  0  0  0  0  0
   -0.7139   -4.2906   -0.5825 H   0  0  0  0  0  0  0  0  0  0  0  0
   -0.1528   -3.7390    1.0959 H   0  0  0  0  0  0  0  0  0  0  0  0
    2.3063   -3.7817    1.4637 H   0  0  0  0  0  0  0  0  0  0  0  0
    3.3432   -4.0689    0.0809 H   0  0  0  0  0  0  0  0  0  0  0  0
    2.7545   -2.2000   -1.1296 H   0  0  0  0  0  0  0  0  0  0  0  0
    3.3944   -1.7618    1.7605 H   0  0  0  0  0  0  0  0  0  0  0  0
    6.4477   -1.0628    0.8802 H   0  0  0  0  0  0  0  0  0  0  0  0
    4.2616    0.4180    2.4961 H   0  0  0  0  0  0  0  0  0  0  0  0
    5.0736   -1.1326    2.8015 H   0  0  0  0  0  0  0  0  0  0  0  0
    6.6225    1.4890    2.6147 H   0  0  0  0  0  0  0  0  0  0  0  0
    6.0112    0.7777    4.1907 H   0  0  0  0  0  0  0  0  0  0  0  0
    8.6345    1.1476    4.5706 H   0  0  0  0  0  0  0  0  0  0  0  0
    9.6991    0.0028    3.7207 H   0  0  0  0  0  0  0  0  0  0  0  0
    5.4784    1.7609    0.3649 H   0  0  0  0  0  0  0  0  0  0  0  0
    8.0789    2.9661   -0.1318 H   0  0  0  0  0  0  0  0  0  0  0  0
    9.7745    1.3690   -0.8065 H   0  0  0  0  0  0  0  0  0  0  0  0
    9.0238    1.3045   -2.3817 H   0  0  0  0  0  0  0  0  0  0  0  0
    5.9252    2.8499   -1.5800 H   0  0  0  0  0  0  0  0  0  0  0  0
    6.8537    1.9405   -2.8066 H   0  0  0  0  0  0  0  0  0  0  0  0
    6.7178    4.2270   -3.4256 H   0  0  0  0  0  0  0  0  0  0  0  0
    7.3642    4.8052   -1.8356 H   0  0  0  0  0  0  0  0  0  0  0  0
    9.4276    2.5049   -4.5047 H   0  0  0  0  0  0  0  0  0  0  0  0
   -0.0939   -2.1982   -1.5843 H   0  0  0  0  0  0  0  0  0  0  0  0
   -0.7719    0.3274   -0.1005 H   0  0  0  0  0  0  0  0  0  0  0  0
   -0.2391    0.8370   -2.4330 H   0  0  0  0  0  0  0  0  0  0  0  0
   -1.9518    1.0418   -2.0491 H   0  0  0  0  0  0  0  0  0  0  0  0
   -3.6284   -0.4707   -3.1265 H   0  0  0  0  0  0  0  0  0  0  0  0
   -4.1716   -1.9615   -4.9417 H   0  0  0  0  0  0  0  0  0  0  0  0
   -2.4042   -2.9975   -6.2325 H   0  0  0  0  0  0  0  0  0  0  0  0
   -0.0197   -2.5186   -5.6651 H   0  0  0  0  0  0  0  0  0  0  0  0
    0.5154   -1.0127   -3.8193 H   0  0  0  0  0  0  0  0  0  0  0  0
   -2.6599    0.9205    0.3865 H   0  0  0  0  0  0  0  0  0  0  0  0
   -5.2759   -0.2800   -0.3233 H   0  0  0  0  0  0  0  0  0  0  0  0
   -4.4448   -0.5285    2.6362 H   0  0  0  0  0  0  0  0  0  0  0  0
   -6.1070   -0.4169    2.0535 H   0  0  0  0  0  0  0  0  0  0  0  0
   -3.9927   -2.5308    1.4480 H   0  0  0  0  0  0  0  0  0  0  0  0
   -5.5729   -2.4745    0.5853 H   0  0  0  0  0  0  0  0  0  0  0  0
   -7.1480   -4.3663    2.2796 H   0  0  0  0  0  0  0  0  0  0  0  0
   -5.5923   -5.0948    2.7086 H   0  0  0  0  0  0  0  0  0  0  0  0
   -6.9356    1.3172    1.4297 H   0  0  0  0  0  0  0  0  0  0  0  0
   -5.4106    3.8980    1.0022 H   0  0  0  0  0  0  0  0  0  0  0  0
   -7.3949    5.1578    0.7863 H   0  0  0  0  0  0  0  0  0  0  0  0
   -7.2179    4.0275   -0.5588 H   0  0  0  0  0  0  0  0  0  0  0  0
   -9.8888    4.9213   -0.7281 H   0  0  0  0  0  0  0  0  0  0  0  0
  -11.4061    2.0956    1.9769 H   0  0  0  0  0  0  0  0  0  0  0  0
   -8.9048    2.1628    2.2955 H   0  0  0  0  0  0  0  0  0  0  0  0
   -7.6388    5.3498    3.6049 H   0  0  0  0  0  0  0  0  0  0  0  0
   -5.9059    5.6836    3.5189 H   0  0  0  0  0  0  0  0  0  0  0  0
  1  2  1  0
  2  3  1  0
  2  4  1  0
  4  5  1  0
  5  6  1  0
  6  7  1  0
  7  8  2  0
  7  9  1  0
  9 10  1  0
 10 11  1  0
 11 12  1  0
 12 13  1  0
 12 14  2  0
  9 15  1  0
 15 16  1  0
 16 17  2  0
 16 18  1  0
 18 19  1  0
 18 20  1  0
 20 21  1  0
 21 22  1  0
 22 23  1  0
 22 24  2  0
  5 25  1  0
 25 26  2  0
 25 27  1  0
 27 28  1  0
 28 29  1  0
 29 30  1  0
 30 31  2  0
 31 32  1  0
 32 33  2  0
 33 34  1  0
 34 35  2  0
 28 36  1  0
 36 37  2  0
 36 38  1  0
 38 39  1  0
 39 40  1  0
 40 41  1  0
 41 42  1  0
 42 43  1  0
 42 44  2  0
 39 45  1  0
 45 46  2  0
 45 47  1  0
 47 48  1  0
 48 49  1  0
 49 50  1  0
 50 51  2  0
 51 52  1  0
 52 53  2  0
 53 54  1  0
 48 55  1  0
 55 56  1  0
 55 57  2  0
 35 30  1  0
 54 50  1  0
  1 58  1  0
  1 59  1  0
  1 60  1  0
  2 61  1  0
  3 62  1  0
  3 63  1  0
  3 64  1  0
  4 65  1  0
  4 66  1  0
  5 67  1  6
  6 68  1  0
  9 69  1  1
 10 70  1  0
 10 71  1  0
 11 72  1  0
 11 73  1  0
 13 74  1  0
 13 75  1  0
 15 76  1  0
 18 77  1  1
 19 78  1  0
 19 79  1  0
 20 80  1  0
 20 81  1  0
 21 82  1  0
 21 83  1  0
 23 84  1  0
 27 85  1  0
 28 86  1  1
 29 87  1  0
 29 88  1  0
 31 89  1  0
 32 90  1  0
 33 91  1  0
 34 92  1  0
 35 93  1  0
 38 94  1  0
 39 95  1  6
 40 96  1  0
 40 97  1  0
 41 98  1  0
 41 99  1  0
 43100  1  0
 43101  1  0
 47102  1  0
 48103  1  6
 49104  1  0
 49105  1  0
 51106  1  0
 53107  1  0
 54108  1  0
 56109  1  0
 56110  1  0
M  END
$$$$
[H]c1nc2c([H])c([H])c([H])c([H])n2c1C#Cc1c([H])c(C(=O)N([H])c2c([H])c([H])c(C([H])([H])N3C([H])([H])C([H])([H])N(C([H])([H])[H])C([H])([H])C3([H])[H])c(C(F)(F)F)c2[H])c([H])c([H])c1C([H])([H])[H]
     RDKit          3D

 67 71  0  0  0  0  0  0  0  0999 V2000
   -8.5742    1.6981    1.0271 C   0  0  0  0  0  0  0  0  0  0  0  0
   -8.4935    0.2948    1.3032 N   0  0  0  0  0  0  0  0  0  0  0  0
   -7.5100   -0.0987    2.2489 C   0  0  0  0  0  0  0  0  0  0  0  0
   -6.1897   -0.5298    1.6797 C   0  0  0  0  0  0  0  0  0  0  0  0
   -6.2732   -1.3599    0.5217 N   0  0  0  0  0  0  0  0  0  0  0  0
   -5.8227   -0.7384   -0.6897 C   0  0  0  0  0  0  0  0  0  0  0  0
   -4.4030   -0.4161   -0.7877 C   0  0  0  0  0  0  0  0  0  0  0  0
   -3.4720   -0.6992    0.1898 C   0  0  0  0  0  0  0  0  0  0  0  0
   -2.1111   -0.3824    0.0484 C   0  0  0  0  0  0  0  0  0  0  0  0
   -1.6288    0.2291   -1.0770 C   0  0  0  0  0  0  0  0  0  0  0  0
   -0.2722    0.5682   -1.3081 N   0  0  0  0  0  0  0  0  0  0  0  0
    0.8552    0.2067   -0.5793 C   0  0  0  0  0  0  0  0  0  0  0  0
    0.7749   -0.5173    0.4331 O   0  0  0  0  0  0  0  0  0  0  0  0
    2.2075    0.6393   -0.9359 C   0  0  0  0  0  0  0  0  0  0  0  0
    2.4409    1.6499   -1.8393 C   0  0  0  0  0  0  0  0  0  0  0  0
    3.7159    2.0794   -2.2042 C   0  0  0  0  0  0  0  0  0  0  0  0
    4.7852    1.4410   -1.6136 C   0  0  0  0  0  0  0  0  0  0  0  0
    6.1953    1.8216   -1.9322 C   0  0  0  0  0  0  0  0  0  0  0  0
    4.6028    0.4146   -0.6950 C   0  0  0  0  0  0  0  0  0  0  0  0
    3.3184    0.0403   -0.3800 C   0  0  0  0  0  0  0  0  0  0  0  0
    5.7181   -0.2544   -0.0760 C   0  0  0  0  0  0  0  0  0  0  0  0
    6.6539   -0.8302    0.4357 C   0  0  0  0  0  0  0  0  0  0  0  0
    7.7669   -1.5365    1.0307 C   0  0  0  0  0  0  0  0  0  0  0  0
    7.9026   -2.8945    1.0339 C   0  0  0  0  0  0  0  0  0  0  0  0
    9.0507   -3.1553    1.6734 N   0  0  0  0  0  0  0  0  0  0  0  0
    9.6236   -2.0064    2.0622 C   0  0  0  0  0  0  0  0  0  0  0  0
   10.7847   -1.6862    2.7406 C   0  0  0  0  0  0  0  0  0  0  0  0
   11.1522   -0.4051    3.0197 C   0  0  0  0  0  0  0  0  0  0  0  0
   10.3216    0.6071    2.6020 C   0  0  0  0  0  0  0  0  0  0  0  0
    9.1709    0.2900    1.9296 C   0  0  0  0  0  0  0  0  0  0  0  0
    8.8264   -1.0061    1.6629 N   0  0  0  0  0  0  0  0  0  0  0  0
   -2.5803    0.5064   -2.0514 C   0  0  0  0  0  0  0  0  0  0  0  0
   -3.9237    0.1996   -1.9240 C   0  0  0  0  0  0  0  0  0  0  0  0
   -4.8458    0.5340   -3.0345 C   0  0  0  0  0  0  0  0  0  0  0  0
   -5.8544    1.3860   -2.7265 F   0  0  0  0  0  0  0  0  0  0  0  0
   -5.2712   -0.6077   -3.7319 F   0  0  0  0  0  0  0  0  0  0  0  0
   -4.1012    1.2201   -4.0241 F   0  0  0  0  0  0  0  0  0  0  0  0
   -7.6626   -1.7297    0.3338 C   0  0  0  0  0  0  0  0  0  0  0  0
   -8.5679   -0.5553    0.1620 C   0  0  0  0  0  0  0  0  0  0  0  0
   -9.2316    2.1596    1.8009 H   0  0  0  0  0  0  0  0  0  0  0  0
   -7.5872    2.2031    1.0283 H   0  0  0  0  0  0  0  0  0  0  0  0
   -9.1092    1.8146    0.0524 H   0  0  0  0  0  0  0  0  0  0  0  0
   -7.9349   -0.8699    2.9240 H   0  0  0  0  0  0  0  0  0  0  0  0
   -7.2971    0.7911    2.9042 H   0  0  0  0  0  0  0  0  0  0  0  0
   -5.6985   -1.1348    2.4943 H   0  0  0  0  0  0  0  0  0  0  0  0
   -5.5626    0.3720    1.5271 H   0  0  0  0  0  0  0  0  0  0  0  0
   -6.3662    0.2646   -0.6822 H   0  0  0  0  0  0  0  0  0  0  0  0
   -6.2581   -1.2397   -1.5936 H   0  0  0  0  0  0  0  0  0  0  0  0
   -3.7808   -1.1954    1.1014 H   0  0  0  0  0  0  0  0  0  0  0  0
   -1.4616   -0.6325    0.8631 H   0  0  0  0  0  0  0  0  0  0  0  0
   -0.0890    1.1900   -2.1635 H   0  0  0  0  0  0  0  0  0  0  0  0
    1.6143    2.1780   -2.3218 H   0  0  0  0  0  0  0  0  0  0  0  0
    3.8929    2.8720   -2.9129 H   0  0  0  0  0  0  0  0  0  0  0  0
    6.2901    2.9217   -2.0708 H   0  0  0  0  0  0  0  0  0  0  0  0
    6.8607    1.5623   -1.0856 H   0  0  0  0  0  0  0  0  0  0  0  0
    6.4911    1.2589   -2.8349 H   0  0  0  0  0  0  0  0  0  0  0  0
    3.1346   -0.7692    0.3433 H   0  0  0  0  0  0  0  0  0  0  0  0
    7.1993   -3.6103    0.5945 H   0  0  0  0  0  0  0  0  0  0  0  0
   11.4321   -2.4902    3.0653 H   0  0  0  0  0  0  0  0  0  0  0  0
   12.0553   -0.1553    3.5474 H   0  0  0  0  0  0  0  0  0  0  0  0
   10.5709    1.6324    2.7999 H   0  0  0  0  0  0  0  0  0  0  0  0
    8.4984    1.0692    1.5892 H   0  0  0  0  0  0  0  0  0  0  0  0
   -2.2251    0.9962   -2.9674 H   0  0  0  0  0  0  0  0  0  0  0  0
   -7.6988   -2.3154   -0.6225 H   0  0  0  0  0  0  0  0  0  0  0  0
   -8.0626   -2.3566    1.1487 H   0  0  0  0  0  0  0  0  0  0  0  0
   -9.6019   -0.9693    0.0320 H   0  0  0  0  0  0  0  0  0  0  0  0
   -8.3850    0.0358   -0.7578 H   0  0  0  0  0  0  0  0  0  0  0  0
  1  2  1  0
  2  3  1  0
  3  4  1  0
  4  5  1  0
  5  6  1  0
  6  7  1  0
  7  8  2  0
  8  9  1  0
  9 10  2  0
 10 11  1  0
 11 12  1  0
 12 13  2  0
 12 14  1  0
 14 15  2  0
 15 16  1  0
 16 17  2  0
 17 18  1  0
 17 19  1  0
 19 20  2  0
 19 21  1  0
 21 22  3  0
 22 23  1  0
 23 24  2  0
 24 25  1  0
 25 26  2  0
 26 27  1  0
 27 28  2  0
 28 29  1  0
 29 30  2  0
 30 31  1  0
 10 32  1  0
 32 33  2  0
 33 34  1  0
 34 35  1  0
 34 36  1  0
 34 37  1  0
  5 38  1  0
 38 39  1  0
 39  2  1  0
 33  7  1  0
 20 14  1  0
 31 23  1  0
 31 26  1  0
  1 40  1  0
  1 41  1  0
  1 42  1  0
  3 43  1  0
  3 44  1  0
  4 45  1  0
  4 46  1  0
  6 47  1  0
  6 48  1  0
  8 49  1  0
  9 50  1  0
 11 51  1  0
 15 52  1  0
 16 53  1  0
 18 54  1  0
 18 55  1  0
 18 56  1  0
 20 57  1  0
 24 58  1  0
 27 59  1  0
 28 60  1  0
 29 61  1  0
 30 62  1  0
 32 63  1  0
 38 64  1  0
 38 65  1  0
 39 66  1  0
 39 67  1  0
M  END
$$$$
[H]ON([H])C(=O)C([H])([H])N(C([H])([H])c1c([H])c([H])c([H])c([H])c1[H])S(=O)(=O)c1c([H])c([H])c(OC([H])([H])[H])c([H])c1[H]
     RDKit          3D

 42 43  0  0  0  0  0  0  0  0999 V2000
    6.2764    1.1950   -0.3768 C   0  0  0  0  0  0  0  0  0  0  0  0
    5.2976    2.0439    0.2283 O   0  0  0  0  0  0  0  0  0  0  0  0
    4.0555    1.4835    0.5072 C   0  0  0  0  0  0  0  0  0  0  0  0
    3.7592    0.1621    0.2190 C   0  0  0  0  0  0  0  0  0  0  0  0
    2.5170   -0.3697    0.5065 C   0  0  0  0  0  0  0  0  0  0  0  0
    1.5233    0.3873    1.0895 C   0  0  0  0  0  0  0  0  0  0  0  0
    1.8513    1.7184    1.3692 C   0  0  0  0  0  0  0  0  0  0  0  0
    3.0688    2.2471    1.0897 C   0  0  0  0  0  0  0  0  0  0  0  0
   -0.0712   -0.2640    1.4679 S   0  0  0  0  0  0  0  0  0  0  0  0
   -0.5472    0.3811    2.7555 O   0  0  0  0  0  0  0  0  0  0  0  0
    0.1360   -1.7144    1.7968 O   0  0  0  0  0  0  0  0  0  0  0  0
   -1.1953   -0.0956    0.2589 N   0  0  0  0  0  0  0  0  0  0  0  0
   -1.5487    1.2050   -0.1634 C   0  0  0  0  0  0  0  0  0  0  0  0
   -0.7854    1.7789   -1.2613 C   0  0  0  0  0  0  0  0  0  0  0  0
    0.1387    1.1416   -1.8014 O   0  0  0  0  0  0  0  0  0  0  0  0
   -1.0819    3.0683   -1.7308 N   0  0  0  0  0  0  0  0  0  0  0  0
   -0.4269    3.6784   -2.7427 O   0  0  0  0  0  0  0  0  0  0  0  0
   -1.5403   -1.1721   -0.5640 C   0  0  0  0  0  0  0  0  0  0  0  0
   -2.6871   -1.9978   -0.1111 C   0  0  0  0  0  0  0  0  0  0  0  0
   -3.9991   -1.5576   -0.2192 C   0  0  0  0  0  0  0  0  0  0  0  0
   -5.0835   -2.3001    0.1854 C   0  0  0  0  0  0  0  0  0  0  0  0
   -4.8812   -3.5499    0.7298 C   0  0  0  0  0  0  0  0  0  0  0  0
   -3.5919   -4.0220    0.8535 C   0  0  0  0  0  0  0  0  0  0  0  0
   -2.5130   -3.2471    0.4348 C   0  0  0  0  0  0  0  0  0  0  0  0
    6.4589    0.3841    0.3758 H   0  0  0  0  0  0  0  0  0  0  0  0
    5.8740    0.7252   -1.2787 H   0  0  0  0  0  0  0  0  0  0  0  0
    7.2079    1.7634   -0.5387 H   0  0  0  0  0  0  0  0  0  0  0  0
    4.5399   -0.4295   -0.2380 H   0  0  0  0  0  0  0  0  0  0  0  0
    2.2852   -1.4196    0.2762 H   0  0  0  0  0  0  0  0  0  0  0  0
    1.0860    2.3253    1.8255 H   0  0  0  0  0  0  0  0  0  0  0  0
    3.2689    3.2806    1.3264 H   0  0  0  0  0  0  0  0  0  0  0  0
   -1.5146    1.8926    0.7334 H   0  0  0  0  0  0  0  0  0  0  0  0
   -2.6247    1.2070   -0.4585 H   0  0  0  0  0  0  0  0  0  0  0  0
   -1.8522    3.6026   -1.2824 H   0  0  0  0  0  0  0  0  0  0  0  0
    0.0532    4.4456   -2.3709 H   0  0  0  0  0  0  0  0  0  0  0  0
   -0.6448   -1.8265   -0.7140 H   0  0  0  0  0  0  0  0  0  0  0  0
   -1.7770   -0.7871   -1.5902 H   0  0  0  0  0  0  0  0  0  0  0  0
   -4.1991   -0.5858   -0.6402 H   0  0  0  0  0  0  0  0  0  0  0  0
   -6.1133   -1.9222    0.0861 H   0  0  0  0  0  0  0  0  0  0  0  0
   -5.7282   -4.1533    1.0563 H   0  0  0  0  0  0  0  0  0  0  0  0
   -3.4518   -5.0062    1.2834 H   0  0  0  0  0  0  0  0  0  0  0  0
   -1.5394   -3.6963    0.5652 H   0  0  0  0  0  0  0  0  0  0  0  0
  1  2  1  0
  2  3  1  0
  3  4  2  0
  4  5  1  0
  5  6  2  0
  6  7  1  0
  7  8  2  0
  6  9  1  0
  9 10  2  0
  9 11  2  0
  9 12  1  0
 12 13  1  0
 13 14  1  0
 14 15  2  0
 14 16  1  0
 16 17  1  0
 12 18  1  0
 18 19  1  0
 19 20  2  0
 20 21  1  0
 21 22  2  0
 22 23  1  0
 23 24  2  0
  8  3  1  0
 24 19  1  0
  1 25  1  0
  1 26  1  0
  1 27  1  0
  4 28  1  0
  5 29  1  0
  7 30  1  0
  8 31  1  0
 13 32  1  0
 13 33  1  0
 16 34  1  0
 17 35  1  0
 18 36  1  0
 18 37  1  0
 20 38  1  0
 21 39  1  0
 22 40  1  0
 23 41  1  0
 24 42  1  0
M  END
$$$$
[H]OC(=O)C([H])([H])C([H])([H])[C@@]([H])(C(=O)N([H])[C@]([H])(C(=O)N([H])[C@]([H])(C(=O)N([H])[C@]([H])(C(=O)N([H])[C@]([H])(C(=O)N([H])[H])C([H])([H])c1c([H])nc([H])n1[H])C([H])([H])C([H])([H])C(=O)N([H])[H])C([H])([H])C([H])(C([H])([H])[H])C([H])([H])[H])C([H])([H])C([H])([H])C(=O)N([H])[H])N([H])[H]
     RDKit          3D

 90 90  0  0  0  0  0  0  0  0999 V2000
    0.6727   -3.8213    1.8620 C   0  0  0  0  0  0  0  0  0  0  0  0
   -0.1470   -3.9609    0.6380 C   0  0  0  0  0  0  0  0  0  0  0  0
   -0.5257   -5.4519    0.5347 C   0  0  0  0  0  0  0  0  0  0  0  0
    0.4221   -3.5757   -0.6584 C   0  0  0  0  0  0  0  0  0  0  0  0
    0.8600   -2.2246   -0.9436 C   0  0  2  0  0  0  0  0  0  0  0  0
    1.9212   -1.6250   -0.1676 N   0  0  0  0  0  0  0  0  0  0  0  0
    2.9697   -0.8803   -0.7135 C   0  0  0  0  0  0  0  0  0  0  0  0
    2.9340   -0.7219   -2.0048 O   0  0  0  0  0  0  0  0  0  0  0  0
    4.1096   -0.2323   -0.0706 C   0  0  2  0  0  0  0  0  0  0  0  0
    4.2897   -0.3473    1.3933 C   0  0  0  0  0  0  0  0  0  0  0  0
    4.5361   -1.7418    1.8220 C   0  0  0  0  0  0  0  0  0  0  0  0
    4.6743   -1.8760    3.3006 C   0  0  0  0  0  0  0  0  0  0  0  0
    4.9392   -3.1210    3.8894 N   0  0  0  0  0  0  0  0  0  0  0  0
    4.5445   -0.8436    3.9823 O   0  0  0  0  0  0  0  0  0  0  0  0
    4.2645    1.1467   -0.5001 N   0  0  0  0  0  0  0  0  0  0  0  0
    5.2898    1.6771   -1.2825 C   0  0  0  0  0  0  0  0  0  0  0  0
    6.2190    0.9761   -1.7104 O   0  0  0  0  0  0  0  0  0  0  0  0
    5.2676    3.1374   -1.6160 C   0  0  1  0  0  0  0  0  0  0  0  0
    4.0930    3.7564   -1.0337 N   0  0  0  0  0  0  0  0  0  0  0  0
    6.4591    3.8457   -1.0126 C   0  0  0  0  0  0  0  0  0  0  0  0
    6.5105    5.3033   -1.2788 C   0  0  0  0  0  0  0  0  0  0  0  0
    6.6202    5.6825   -2.6896 C   0  0  0  0  0  0  0  0  0  0  0  0
    6.5663    7.0321   -3.0963 O   0  0  0  0  0  0  0  0  0  0  0  0
    6.7638    4.8382   -3.5893 O   0  0  0  0  0  0  0  0  0  0  0  0
   -0.3053   -1.2808   -1.0561 C   0  0  0  0  0  0  0  0  0  0  0  0
   -0.0234   -0.0608   -0.7937 O   0  0  0  0  0  0  0  0  0  0  0  0
   -1.6184   -1.6653   -1.4181 N   0  0  0  0  0  0  0  0  0  0  0  0
   -2.6872   -0.6939   -1.5404 C   0  0  1  0  0  0  0  0  0  0  0  0
   -3.6795   -0.9743   -2.5930 C   0  0  0  0  0  0  0  0  0  0  0  0
   -4.4286   -2.2708   -2.4522 C   0  0  0  0  0  0  0  0  0  0  0  0
   -5.3771   -2.3889   -3.5796 C   0  0  0  0  0  0  0  0  0  0  0  0
   -6.2790   -3.4790   -3.7202 N   0  0  0  0  0  0  0  0  0  0  0  0
   -5.3996   -1.4973   -4.4582 O   0  0  0  0  0  0  0  0  0  0  0  0
   -3.2476   -0.3643   -0.1986 C   0  0  0  0  0  0  0  0  0  0  0  0
   -2.7558   -0.9398    0.7950 O   0  0  0  0  0  0  0  0  0  0  0  0
   -4.2845    0.5573   -0.0225 N   0  0  0  0  0  0  0  0  0  0  0  0
   -4.8464    0.9238    1.3179 C   0  0  1  0  0  0  0  0  0  0  0  0
   -4.7947    2.4095    1.4204 C   0  0  0  0  0  0  0  0  0  0  0  0
   -5.2009    3.0249    2.6788 C   0  0  0  0  0  0  0  0  0  0  0  0
   -5.3533    2.5579    3.9639 C   0  0  0  0  0  0  0  0  0  0  0  0
   -5.7865    3.5385    4.7886 N   0  0  0  0  0  0  0  0  0  0  0  0
   -5.9075    4.6200    4.0307 C   0  0  0  0  0  0  0  0  0  0  0  0
   -5.5663    4.3454    2.7727 N   0  0  0  0  0  0  0  0  0  0  0  0
   -6.2542    0.4792    1.2778 C   0  0  0  0  0  0  0  0  0  0  0  0
   -7.1540    0.6487    2.3237 N   0  0  0  0  0  0  0  0  0  0  0  0
   -6.7021   -0.0983    0.2291 O   0  0  0  0  0  0  0  0  0  0  0  0
    0.3621   -2.8737    2.3653 H   0  0  0  0  0  0  0  0  0  0  0  0
    0.3915   -4.6148    2.6260 H   0  0  0  0  0  0  0  0  0  0  0  0
    1.7456   -3.9436    1.7268 H   0  0  0  0  0  0  0  0  0  0  0  0
   -1.1499   -3.4480    0.7295 H   0  0  0  0  0  0  0  0  0  0  0  0
   -1.1426   -5.7276    1.4115 H   0  0  0  0  0  0  0  0  0  0  0  0
    0.4352   -6.0285    0.6371 H   0  0  0  0  0  0  0  0  0  0  0  0
   -0.9824   -5.6785   -0.4295 H   0  0  0  0  0  0  0  0  0  0  0  0
   -0.3096   -3.8901   -1.4542 H   0  0  0  0  0  0  0  0  0  0  0  0
    1.2958   -4.3099   -0.8903 H   0  0  0  0  0  0  0  0  0  0  0  0
    1.2569   -2.2118   -2.0149 H   0  0  0  0  0  0  0  0  0  0  0  0
    1.8392   -1.7454    0.8583 H   0  0  0  0  0  0  0  0  0  0  0  0
    5.0816   -0.7101   -0.5658 H   0  0  0  0  0  0  0  0  0  0  0  0
    5.1858    0.2515    1.7540 H   0  0  0  0  0  0  0  0  0  0  0  0
    3.4160    0.1253    1.9091 H   0  0  0  0  0  0  0  0  0  0  0  0
    3.7996   -2.4435    1.4666 H   0  0  0  0  0  0  0  0  0  0  0  0
    5.5144   -2.1004    1.3415 H   0  0  0  0  0  0  0  0  0  0  0  0
    4.4724   -3.4861    4.7505 H   0  0  0  0  0  0  0  0  0  0  0  0
    5.6606   -3.7648    3.4594 H   0  0  0  0  0  0  0  0  0  0  0  0
    3.4688    1.7710   -0.1402 H   0  0  0  0  0  0  0  0  0  0  0  0
    5.2136    3.2792   -2.7232 H   0  0  0  0  0  0  0  0  0  0  0  0
    3.2204    3.3311   -1.3732 H   0  0  0  0  0  0  0  0  0  0  0  0
    4.1538    3.6762   -0.0055 H   0  0  0  0  0  0  0  0  0  0  0  0
    6.3943    3.6989    0.0957 H   0  0  0  0  0  0  0  0  0  0  0  0
    7.4142    3.3949   -1.3830 H   0  0  0  0  0  0  0  0  0  0  0  0
    7.3910    5.7284   -0.7434 H   0  0  0  0  0  0  0  0  0  0  0  0
    5.6347    5.8406   -0.8260 H   0  0  0  0  0  0  0  0  0  0  0  0
    7.3890    7.5769   -3.2825 H   0  0  0  0  0  0  0  0  0  0  0  0
   -1.8244   -2.6614   -1.5999 H   0  0  0  0  0  0  0  0  0  0  0  0
   -2.1535    0.2800   -1.8099 H   0  0  0  0  0  0  0  0  0  0  0  0
   -4.4369   -0.1801   -2.7101 H   0  0  0  0  0  0  0  0  0  0  0  0
   -3.1176   -1.0121   -3.5743 H   0  0  0  0  0  0  0  0  0  0  0  0
   -3.7177   -3.1320   -2.5768 H   0  0  0  0  0  0  0  0  0  0  0  0
   -5.0119   -2.3271   -1.5152 H   0  0  0  0  0  0  0  0  0  0  0  0
   -6.1118   -4.3348   -3.1499 H   0  0  0  0  0  0  0  0  0  0  0  0
   -7.0980   -3.4726   -4.3596 H   0  0  0  0  0  0  0  0  0  0  0  0
   -4.6976    1.0242   -0.8464 H   0  0  0  0  0  0  0  0  0  0  0  0
   -4.2918    0.4470    2.1250 H   0  0  0  0  0  0  0  0  0  0  0  0
   -5.4807    2.8576    0.6256 H   0  0  0  0  0  0  0  0  0  0  0  0
   -3.7847    2.8245    1.1707 H   0  0  0  0  0  0  0  0  0  0  0  0
   -5.1398    1.5452    4.2745 H   0  0  0  0  0  0  0  0  0  0  0  0
   -6.2402    5.5882    4.4001 H   0  0  0  0  0  0  0  0  0  0  0  0
   -5.5742    5.0060    1.9866 H   0  0  0  0  0  0  0  0  0  0  0  0
   -7.8897    1.4170    2.2761 H   0  0  0  0  0  0  0  0  0  0  0  0
   -7.1833    0.0689    3.1971 H   0  0  0  0  0  0  0  0  0  0  0  0
  1  2  1  0
  2  3  1  0
  2  4  1  0
  4  5  1  0
  5  6  1  0
  6  7  1  0
  7  8  2  0
  7  9  1  0
  9 10  1  0
 10 11  1  0
 11 12  1  0
 12 13  1  0
 12 14  2  0
  9 15  1  0
 15 16  1  0
 16 17  2  0
 16 18  1  0
 18 19  1  0
 18 20  1  0
 20 21  1  0
 21 22  1  0
 22 23  1  0
 22 24  2  0
  5 25  1  0
 25 26  2  0
 25 27  1  0
 27 28  1  0
 28 29  1  0
 29 30  1  0
 30 31  1  0
 31 32  1  0
 31 33  2  0
 28 34  1  0
 34 35  2  0
 34 36  1  0
 36 37  1  0
 37 38  1  0
 38 39  1  0
 39 40  2  0
 40 41  1  0
 41 42  2  0
 42 43  1  0
 37 44  1  0
 44 45  1  0
 44 46  2  0
 43 39  1  0
  1 47  1  0
  1 48  1  0
  1 49  1  0
  2 50  1  0
  3 51  1  0
  3 52  1  0
  3 53  1  0
  4 54  1  0
  4 55  1  0
  5 56  1  6
  6 57  1  0
  9 58  1  6
 10 59  1  0
 10 60  1  0
 11 61  1  0
 11 62  1  0
 13 63  1  0
 13 64  1  0
 15 65  1  0
 18 66  1  6
 19 67  1  0
 19 68  1  0
 20 69  1  0
 20 70  1  0
 21 71  1  0
 21 72  1  0
 23 73  1  0
 27 74  1  0
 28 75  1  6
 29 76  1  0
 29 77  1  0
 30 78  1  0
 30 79  1  0
 32 80  1  0
 32 81  1  0
 36 82  1  0
 37 83  1  1
 38 84  1  0
 38 85  1  0
 40 86  1  0
 42 87  1  0
 43 88  1  0
 45 89  1  0
 45 90  1  0
M  END
$$$$
[H]c1nc(N2C([H])([H])[C@@]3([H])N(C([H])([H])[H])C([H])([H])[C@@]2([H])C3([H])[H])c([H])c([H])c1-c1c([H])c(F)c([H])c(F)c1[H]
     RDKit          2D

 39 42  0  0  0  0  0  0  0  0999 V2000
    2.7760    0.0000    0.0000 C   0  0  0  0  0  0  0  0  0  0  0  0
    1.2760    0.0000    0.0000 N   0  0  0  0  0  0  0  0  0  0  0  0
    0.3943    1.2135    0.0000 C   0  0  0  0  0  0  0  0  0  0  0  0
   -1.0323    0.7500    0.0000 C   0  0  0  0  0  0  0  0  0  0  0  0
   -1.0323   -0.7500    0.0000 C   0  0  0  0  0  0  0  0  0  0  0  0
    0.3943   -1.2135    0.0000 C   0  0  0  0  0  0  0  0  0  0  0  0
   -1.0323   -1.6771    0.0000 C   0  0  0  0  0  0  0  0  0  0  0  0
   -1.9140   -0.4635    0.0000 N   0  0  0  0  0  0  0  0  0  0  0  0
   -3.4140   -0.4635    0.0000 C   0  0  0  0  0  0  0  0  0  0  0  0
   -4.1640    0.8355    0.0000 C   0  0  0  0  0  0  0  0  0  0  0  0
   -5.6640    0.8355    0.0000 C   0  0  0  0  0  0  0  0  0  0  0  0
   -6.4140   -0.4635    0.0000 C   0  0  0  0  0  0  0  0  0  0  0  0
   -5.6640   -1.7626    0.0000 C   0  0  0  0  0  0  0  0  0  0  0  0
   -4.1640   -1.7626    0.0000 N   0  0  0  0  0  0  0  0  0  0  0  0
   -7.9140   -0.4635    0.0000 C   0  0  0  0  0  0  0  0  0  0  0  0
   -8.6640    0.8355    0.0000 C   0  0  0  0  0  0  0  0  0  0  0  0
  -10.1640    0.8355    0.0000 C   0  0  0  0  0  0  0  0  0  0  0  0
  -10.9140    2.1346    0.0000 F   0  0  0  0  0  0  0  0  0  0  0  0
  -10.9140   -0.4635    0.0000 C   0  0  0  0  0  0  0  0  0  0  0  0
  -10.1640   -1.7626    0.0000 C   0  0  0  0  0  0  0  0  0  0  0  0
  -10.9140   -3.0616    0.0000 F   0  0  0  0  0  0  0  0  0  0  0  0
   -8.6640   -1.7626    0.0000 C   0  0  0  0  0  0  0  0  0  0  0  0
    4.2760    0.0000    0.0000 H   0  0  0  0  0  0  0  0  0  0  0  0
    2.7760   -1.5000    0.0000 H   0  0  0  0  0  0  0  0  0  0  0  0
    2.7760    1.5000    0.0000 H   0  0  0  0  0  0  0  0  0  0  0  0
   -0.2158    2.5838    0.0000 H   0  0  0  0  0  0  0  0  0  0  0  0
    1.6933    1.9635    0.0000 H   0  0  0  0  0  0  0  0  0  0  0  0
   -2.2458    1.6317    0.0000 H   0  0  0  0  0  0  0  0  0  0  0  0
   -1.3818   -1.4665    0.0000 H   0  0  0  0  0  0  0  0  0  0  0  0
   -2.5177   -0.9588    0.0000 H   0  0  0  0  0  0  0  0  0  0  0  0
    0.8578   -2.6401    0.0000 H   0  0  0  0  0  0  0  0  0  0  0  0
   -0.4222   -3.0474    0.0000 H   0  0  0  0  0  0  0  0  0  0  0  0
   -2.3313   -2.4271    0.0000 H   0  0  0  0  0  0  0  0  0  0  0  0
   -3.4140    2.1346    0.0000 H   0  0  0  0  0  0  0  0  0  0  0  0
   -6.4140    2.1346    0.0000 H   0  0  0  0  0  0  0  0  0  0  0  0
   -6.4140   -3.0616    0.0000 H   0  0  0  0  0  0  0  0  0  0  0  0
   -7.9140    2.1346    0.0000 H   0  0  0  0  0  0  0  0  0  0  0  0
  -12.4140   -0.4635    0.0000 H   0  0  0  0  0  0  0  0  0  0  0  0
   -7.9140   -3.0616    0.0000 H   0  0  0  0  0  0  0  0  0  0  0  0
  1  2  1  0
  2  3  1  0
  3  4  1  0
  4  5  1  0
  5  6  1  0
  6  7  1  0
  7  8  1  0
  8  9  1  0
  9 10  2  0
 10 11  1  0
 11 12  2  0
 12 13  1  0
 13 14  2  0
 12 15  1  0
 15 16  2  0
 16 17  1  0
 17 18  1  0
 17 19  2  0
 19 20  1  0
 20 21  1  0
 20 22  2  0
  6  2  1  0
 14  9  1  0
 22 15  1  0
  8  4  1  0
  1 23  1  0
  1 24  1  0
  1 25  1  0
  3 26  1  0
  3 27  1  0
  4 28  1  6
  5 29  1  0
  5 30  1  0
  6 31  1  1
  7 32  1  0
  7 33  1  0
 10 34  1  0
 11 35  1  0
 13 36  1  0
 16 37  1  0
 19 38  1  0
 22 39  1  0
M  END
$$$$
[H]c1c(N([H])C(=O)[C@@]2([H])N(C(=O)c3c([H])c([H])c(F)c([H])c3[H])C([H])([H])c3c([H])c([H])c([H])c([H])c3C2([H])[H])noc1C(C([H])([H])[H])(C([H])([H])[H])C([H])([H])[H]
     RDKit          3D

 55 58  0  0  0  0  0  0  0  0999 V2000
   -5.9775   -1.5296    1.1198 C   0  0  0  0  0  0  0  0  0  0  0  0
   -5.6684   -0.9174   -0.1993 C   0  0  0  0  0  0  0  0  0  0  0  0
   -6.3228   -1.7108   -1.3161 C   0  0  0  0  0  0  0  0  0  0  0  0
   -6.1557    0.5193   -0.3052 C   0  0  0  0  0  0  0  0  0  0  0  0
   -4.1869   -0.9361   -0.3967 C   0  0  0  0  0  0  0  0  0  0  0  0
   -3.2900   -0.3546    0.4944 C   0  0  0  0  0  0  0  0  0  0  0  0
   -2.0117   -0.5579   -0.0076 C   0  0  0  0  0  0  0  0  0  0  0  0
   -0.7793   -0.1336    0.6080 N   0  0  0  0  0  0  0  0  0  0  0  0
    0.4371   -0.3206   -0.0655 C   0  0  0  0  0  0  0  0  0  0  0  0
    0.4146   -0.8432   -1.2308 O   0  0  0  0  0  0  0  0  0  0  0  0
    1.7328    0.0593    0.5055 C   0  0  2  0  0  0  0  0  0  0  0  0
    1.5967    1.2450    1.4248 C   0  0  0  0  0  0  0  0  0  0  0  0
    1.6496    2.5391    0.7080 C   0  0  0  0  0  0  0  0  0  0  0  0
    1.3453    3.7085    1.4126 C   0  0  0  0  0  0  0  0  0  0  0  0
    1.3711    4.9549    0.8350 C   0  0  0  0  0  0  0  0  0  0  0  0
    1.7135    5.0313   -0.4966 C   0  0  0  0  0  0  0  0  0  0  0  0
    2.0172    3.8989   -1.2140 C   0  0  0  0  0  0  0  0  0  0  0  0
    1.9850    2.6433   -0.6102 C   0  0  0  0  0  0  0  0  0  0  0  0
    2.2961    1.4656   -1.4282 C   0  0  0  0  0  0  0  0  0  0  0  0
    2.6335    0.2960   -0.5918 N   0  0  0  0  0  0  0  0  0  0  0  0
    3.7711   -0.4308   -0.9944 C   0  0  0  0  0  0  0  0  0  0  0  0
    4.4424    0.0708   -2.0101 O   0  0  0  0  0  0  0  0  0  0  0  0
    4.3554   -1.6385   -0.4913 C   0  0  0  0  0  0  0  0  0  0  0  0
    3.7657   -2.6234    0.2500 C   0  0  0  0  0  0  0  0  0  0  0  0
    4.4628   -3.7055    0.8163 C   0  0  0  0  0  0  0  0  0  0  0  0
    5.8172   -3.8237    0.6397 C   0  0  0  0  0  0  0  0  0  0  0  0
    6.5059   -4.8698    1.1861 F   0  0  0  0  0  0  0  0  0  0  0  0
    6.4396   -2.8555   -0.1026 C   0  0  0  0  0  0  0  0  0  0  0  0
    5.7581   -1.8028   -0.6526 C   0  0  0  0  0  0  0  0  0  0  0  0
   -2.1831   -1.2402   -1.1543 N   0  0  0  0  0  0  0  0  0  0  0  0
   -3.4650   -1.4429   -1.3501 O   0  0  0  0  0  0  0  0  0  0  0  0
   -7.0768   -1.6226    1.2911 H   0  0  0  0  0  0  0  0  0  0  0  0
   -5.5466   -0.8752    1.9210 H   0  0  0  0  0  0  0  0  0  0  0  0
   -5.4919   -2.5074    1.1744 H   0  0  0  0  0  0  0  0  0  0  0  0
   -6.1160   -2.7979   -1.1904 H   0  0  0  0  0  0  0  0  0  0  0  0
   -5.9764   -1.3732   -2.3165 H   0  0  0  0  0  0  0  0  0  0  0  0
   -7.4080   -1.5511   -1.2518 H   0  0  0  0  0  0  0  0  0  0  0  0
   -5.3256    1.2268   -0.1237 H   0  0  0  0  0  0  0  0  0  0  0  0
   -6.6100    0.7372   -1.2807 H   0  0  0  0  0  0  0  0  0  0  0  0
   -6.9003    0.6796    0.4922 H   0  0  0  0  0  0  0  0  0  0  0  0
   -3.5193    0.1679    1.4188 H   0  0  0  0  0  0  0  0  0  0  0  0
   -0.8721    0.2889    1.5487 H   0  0  0  0  0  0  0  0  0  0  0  0
    2.1285   -0.7853    1.1669 H   0  0  0  0  0  0  0  0  0  0  0  0
    2.4654    1.2057    2.1631 H   0  0  0  0  0  0  0  0  0  0  0  0
    0.6888    1.1557    2.0416 H   0  0  0  0  0  0  0  0  0  0  0  0
    1.0702    3.6672    2.4642 H   0  0  0  0  0  0  0  0  0  0  0  0
    1.1247    5.8412    1.4335 H   0  0  0  0  0  0  0  0  0  0  0  0
    1.7316    6.0420   -0.9354 H   0  0  0  0  0  0  0  0  0  0  0  0
    2.2882    3.9688   -2.2525 H   0  0  0  0  0  0  0  0  0  0  0  0
    3.1286    1.6257   -2.1260 H   0  0  0  0  0  0  0  0  0  0  0  0
    1.3689    1.2130   -1.9938 H   0  0  0  0  0  0  0  0  0  0  0  0
    2.6711   -2.5980    0.3706 H   0  0  0  0  0  0  0  0  0  0  0  0
    3.8886   -4.4138    1.3824 H   0  0  0  0  0  0  0  0  0  0  0  0
    7.5212   -2.9359   -0.2509 H   0  0  0  0  0  0  0  0  0  0  0  0
    6.2968   -1.0545   -1.2238 H   0  0  0  0  0  0  0  0  0  0  0  0
  1  2  1  0
  2  3  1  0
  2  4  1  0
  2  5  1  0
  5  6  2  0
  6  7  1  0
  7  8  1  0
  8  9  1  0
  9 10  2  0
  9 11  1  0
 11 12  1  0
 12 13  1  0
 13 14  2  0
 14 15  1  0
 15 16  2  0
 16 17  1  0
 17 18  2  0
 18 19  1  0
 19 20  1  0
 20 21  1  0
 21 22  2  0
 21 23  1  0
 23 24  2  0
 24 25  1  0
 25 26  2  0
 26 27  1  0
 26 28  1  0
 28 29  2  0
  7 30  2  0
 30 31  1  0
 31  5  1  0
 20 11  1  0
 29 23  1  0
 18 13  1  0
  1 32  1  0
  1 33  1  0
  1 34  1  0
  3 35  1  0
  3 36  1  0
  3 37  1  0
  4 38  1  0
  4 39  1  0
  4 40  1  0
  6 41  1  0
  8 42  1  0
 11 43  1  1
 12 44  1  0
 12 45  1  0
 14 46  1  0
 15 47  1  0
 16 48  1  0
 17 49  1  0
 19 50  1  0
 19 51  1  0
 24 52  1  0
 25 53  1  0
 28 54  1  0
 29 55  1  0
M  END
$$$$
[H]c1c([H])c([H])c(C([H])([H])[C@]([H])(C(=O)N2C([H])([H])C([H])([H])C([H])([H])[C@@]2([H])C(=O)N([H])[C@]([H])(C(=O)N([H])[H])C([H])([H])C([H])(C([H])([H])[H])C([H])([H])[H])N([H])C(=O)[C@@]2([H])N(C(=O)[C@@]([H])(N([H])[H])C([H])([H])c3c([H])n([H])c4c([H])c([H])c([H])c([H])c34)C([H])([H])C([H])([H])C2([H])[H])c([H])c1[H]
     RDKit          3D

 95 99  0  0  0  0  0  0  0  0999 V2000
   -8.5129    2.1460   -3.0483 C   0  0  0  0  0  0  0  0  0  0  0  0
   -7.9072    2.0416   -1.7356 C   0  0  0  0  0  0  0  0  0  0  0  0
   -7.3855    3.4961   -1.4077 C   0  0  0  0  0  0  0  0  0  0  0  0
   -6.8832    1.1009   -1.3038 C   0  0  0  0  0  0  0  0  0  0  0  0
   -7.0656   -0.3407   -1.3110 C   0  0  2  0  0  0  0  0  0  0  0  0
   -5.9928   -1.1203   -0.6589 N   0  0  0  0  0  0  0  0  0  0  0  0
   -4.6403   -0.7887   -0.5312 C   0  0  0  0  0  0  0  0  0  0  0  0
   -4.2616    0.2891   -1.0116 O   0  0  0  0  0  0  0  0  0  0  0  0
   -3.7330   -1.6940    0.1383 C   0  0  2  0  0  0  0  0  0  0  0  0
   -4.4879   -2.6156    1.0784 C   0  0  0  0  0  0  0  0  0  0  0  0
   -3.3423   -3.4163    1.6793 C   0  0  0  0  0  0  0  0  0  0  0  0
   -2.1242   -2.5512    1.4775 C   0  0  0  0  0  0  0  0  0  0  0  0
   -2.5996   -1.2796    0.8646 N   0  0  0  0  0  0  0  0  0  0  0  0
   -1.9016   -0.0813    1.0001 C   0  0  0  0  0  0  0  0  0  0  0  0
   -2.3176    0.9132    0.3382 O   0  0  0  0  0  0  0  0  0  0  0  0
   -0.7029    0.1939    1.8134 C   0  0  1  0  0  0  0  0  0  0  0  0
   -0.8029    0.5404    3.1985 C   0  0  0  0  0  0  0  0  0  0  0  0
   -1.3382   -0.2991    4.2582 C   0  0  0  0  0  0  0  0  0  0  0  0
   -2.6679   -0.3838    4.6053 C   0  0  0  0  0  0  0  0  0  0  0  0
   -3.1467   -1.1500    5.6494 C   0  0  0  0  0  0  0  0  0  0  0  0
   -2.2284   -1.8697    6.3822 C   0  0  0  0  0  0  0  0  0  0  0  0
   -0.8873   -1.8047    6.0553 C   0  0  0  0  0  0  0  0  0  0  0  0
   -0.4259   -1.0500    5.0297 C   0  0  0  0  0  0  0  0  0  0  0  0
    0.4255   -0.5437    1.3024 N   0  0  0  0  0  0  0  0  0  0  0  0
    1.2411   -0.1310    0.2115 C   0  0  0  0  0  0  0  0  0  0  0  0
    0.9302    0.9658   -0.3278 O   0  0  0  0  0  0  0  0  0  0  0  0
    2.3280   -0.9262   -0.2221 C   0  0  2  0  0  0  0  0  0  0  0  0
    2.7568   -2.0884    0.6963 C   0  0  0  0  0  0  0  0  0  0  0  0
    3.9798   -2.6495   -0.0480 C   0  0  0  0  0  0  0  0  0  0  0  0
    4.3226   -1.5289   -1.0490 C   0  0  0  0  0  0  0  0  0  0  0  0
    3.6400   -0.3971   -0.4916 N   0  0  0  0  0  0  0  0  0  0  0  0
    4.1130    0.8893   -0.2476 C   0  0  0  0  0  0  0  0  0  0  0  0
    3.3221    1.7313    0.3388 O   0  0  0  0  0  0  0  0  0  0  0  0
    5.4391    1.4704   -0.5707 C   0  0  1  0  0  0  0  0  0  0  0  0
    6.5060    0.8569    0.1447 N   0  0  0  0  0  0  0  0  0  0  0  0
    5.7344    1.4560   -2.0491 C   0  0  0  0  0  0  0  0  0  0  0  0
    7.0561    2.1025   -2.2979 C   0  0  0  0  0  0  0  0  0  0  0  0
    7.2058    3.4667   -2.6489 C   0  0  0  0  0  0  0  0  0  0  0  0
    8.5033    3.7408   -2.7327 N   0  0  0  0  0  0  0  0  0  0  0  0
    9.2476    2.6470   -2.4621 C   0  0  0  0  0  0  0  0  0  0  0  0
   10.5904    2.3908   -2.4138 C   0  0  0  0  0  0  0  0  0  0  0  0
   11.1373    1.1658   -2.1111 C   0  0  0  0  0  0  0  0  0  0  0  0
   10.2193    0.1422   -1.8456 C   0  0  0  0  0  0  0  0  0  0  0  0
    8.8772    0.3882   -1.8917 C   0  0  0  0  0  0  0  0  0  0  0  0
    8.3342    1.6355   -2.1965 C   0  0  0  0  0  0  0  0  0  0  0  0
   -6.9790   -0.9519   -2.6853 C   0  0  0  0  0  0  0  0  0  0  0  0
   -6.9678   -0.3055   -3.8955 N   0  0  0  0  0  0  0  0  0  0  0  0
   -6.9082   -2.2314   -2.7019 O   0  0  0  0  0  0  0  0  0  0  0  0
   -9.1582    3.1123   -3.0050 H   0  0  0  0  0  0  0  0  0  0  0  0
   -7.8035    2.4379   -3.8684 H   0  0  0  0  0  0  0  0  0  0  0  0
   -9.2762    1.4086   -3.3495 H   0  0  0  0  0  0  0  0  0  0  0  0
   -8.7801    1.9157   -0.9832 H   0  0  0  0  0  0  0  0  0  0  0  0
   -6.4063    3.5752   -1.9032 H   0  0  0  0  0  0  0  0  0  0  0  0
   -7.3833    3.5922   -0.3172 H   0  0  0  0  0  0  0  0  0  0  0  0
   -8.0667    4.2331   -1.8506 H   0  0  0  0  0  0  0  0  0  0  0  0
   -6.5405    1.4473   -0.2655 H   0  0  0  0  0  0  0  0  0  0  0  0
   -5.9645    1.3049   -2.0017 H   0  0  0  0  0  0  0  0  0  0  0  0
   -8.0460   -0.6092   -0.8539 H   0  0  0  0  0  0  0  0  0  0  0  0
   -6.3797   -2.0274   -0.2476 H   0  0  0  0  0  0  0  0  0  0  0  0
   -3.3398   -2.4018   -0.7385 H   0  0  0  0  0  0  0  0  0  0  0  0
   -5.1252   -3.2660    0.4493 H   0  0  0  0  0  0  0  0  0  0  0  0
   -5.0433   -2.0465    1.8213 H   0  0  0  0  0  0  0  0  0  0  0  0
   -3.5161   -3.7223    2.7186 H   0  0  0  0  0  0  0  0  0  0  0  0
   -3.2791   -4.3659    1.0626 H   0  0  0  0  0  0  0  0  0  0  0  0
   -1.4842   -2.4341    2.3230 H   0  0  0  0  0  0  0  0  0  0  0  0
   -1.5469   -3.0136    0.5889 H   0  0  0  0  0  0  0  0  0  0  0  0
   -0.3937    1.2752    1.3193 H   0  0  0  0  0  0  0  0  0  0  0  0
    0.2132    0.9902    3.5794 H   0  0  0  0  0  0  0  0  0  0  0  0
   -1.4194    1.5400    3.2528 H   0  0  0  0  0  0  0  0  0  0  0  0
   -3.4248    0.1816    4.0369 H   0  0  0  0  0  0  0  0  0  0  0  0
   -4.1789   -1.2234    5.9245 H   0  0  0  0  0  0  0  0  0  0  0  0
   -2.5131   -2.5102    7.2328 H   0  0  0  0  0  0  0  0  0  0  0  0
   -0.1541   -2.3777    6.6509 H   0  0  0  0  0  0  0  0  0  0  0  0
    0.6433   -0.9928    4.7648 H   0  0  0  0  0  0  0  0  0  0  0  0
    0.6630   -1.4437    1.7627 H   0  0  0  0  0  0  0  0  0  0  0  0
    2.0288   -1.5045   -1.2109 H   0  0  0  0  0  0  0  0  0  0  0  0
    1.9373   -2.7993    0.7613 H   0  0  0  0  0  0  0  0  0  0  0  0
    3.1053   -1.7469    1.6699 H   0  0  0  0  0  0  0  0  0  0  0  0
    3.7354   -3.5911   -0.5808 H   0  0  0  0  0  0  0  0  0  0  0  0
    4.8391   -2.8076    0.6229 H   0  0  0  0  0  0  0  0  0  0  0  0
    5.3910   -1.4596   -1.1804 H   0  0  0  0  0  0  0  0  0  0  0  0
    3.8084   -1.8702   -1.9987 H   0  0  0  0  0  0  0  0  0  0  0  0
    5.4379    2.5572   -0.2582 H   0  0  0  0  0  0  0  0  0  0  0  0
    6.7033    1.2549    1.0710 H   0  0  0  0  0  0  0  0  0  0  0  0
    6.4743   -0.1672    0.1917 H   0  0  0  0  0  0  0  0  0  0  0  0
    4.9506    1.9834   -2.6517 H   0  0  0  0  0  0  0  0  0  0  0  0
    5.8597    0.4091   -2.3702 H   0  0  0  0  0  0  0  0  0  0  0  0
    6.3828    4.1190   -2.8052 H   0  0  0  0  0  0  0  0  0  0  0  0
    8.9804    4.6581   -2.9790 H   0  0  0  0  0  0  0  0  0  0  0  0
   11.2806    3.2056   -2.6270 H   0  0  0  0  0  0  0  0  0  0  0  0
   12.1900    0.9789   -2.0731 H   0  0  0  0  0  0  0  0  0  0  0  0
   10.6313   -0.8187   -1.6004 H   0  0  0  0  0  0  0  0  0  0  0  0
    8.2025   -0.4386   -1.7076 H   0  0  0  0  0  0  0  0  0  0  0  0
   -6.2009    0.3597   -4.1640 H   0  0  0  0  0  0  0  0  0  0  0  0
   -7.7331   -0.4736   -4.5781 H   0  0  0  0  0  0  0  0  0  0  0  0
  1  2  1  0
  2  3  1  0
  2  4  1  0
  4  5  1  0
  5  6  1  0
  6  7  1  0
  7  8  2  0
  7  9  1  0
  9 10  1  0
 10 11  1  0
 11 12  1  0
 12 13  1  0
 13 14  1  0
 14 15  2  0
 14 16  1  0
 16 17  1  0
 17 18  1  0
 18 19  2  0
 19 20  1  0
 20 21  2  0
 21 22  1  0
 22 23  2  0
 16 24  1  0
 24 25  1  0
 25 26  2  0
 25 27  1  0
 27 28  1  0
 28 29  1  0
 29 30  1  0
 30 31  1  0
 31 32  1  0
 32 33  2  0
 32 34  1  0
 34 35  1  0
 34 36  1  0
 36 37  1  0
 37 38  2  0
 38 39  1  0
 39 40  1  0
 40 41  2  0
 41 42  1  0
 42 43  2  0
 43 44  1  0
 44 45  2  0
  5 46  1  0
 46 47  1  0
 46 48  2  0
 13  9  1  0
 23 18  1  0
 31 27  1  0
 45 37  1  0
 45 40  1  0
  1 49  1  0
  1 50  1  0
  1 51  1  0
  2 52  1  0
  3 53  1  0
  3 54  1  0
  3 55  1  0
  4 56  1  0
  4 57  1  0
  5 58  1  1
  6 59  1  0
  9 60  1  6
 10 61  1  0
 10 62  1  0
 11 63  1  0
 11 64  1  0
 12 65  1  0
 12 66  1  0
 16 67  1  6
 17 68  1  0
 17 69  1  0
 19 70  1  0
 20 71  1  0
 21 72  1  0
 22 73  1  0
 23 74  1  0
 24 75  1  0
 27 76  1  6
 28 77  1  0
 28 78  1  0
 29 79  1  0
 29 80  1  0
 30 81  1  0
 30 82  1  0
 34 83  1  1
 35 84  1  0
 35 85  1  0
 36 86  1  0
 36 87  1  0
 38 88  1  0
 39 89  1  0
 41 90  1  0
 42 91  1  0
 43 92  1  0
 44 93  1  0
 47 94  1  0
 47 95  1  0
M  END
$$$$
[H]Oc1c([H])c([H])c(C([H])([H])[C@@]2([H])C(=O)N([H])[C@]([H])(C([H])([H])c3c([H])n([H])c4c([H])c([H])c([H])c([H])c34)C(=O)N([H])[C@@]([H])(C([H])([H])c3c([H])c([H])c([H])c([H])c3[H])C(=O)N([H])[C@@]([H])(C([H])(C([H])([H])[H])C([H])([H])[H])C(=O)N([H])[C@@]([H])(C([H])([H])c3c([H])c([H])c([H])c([H])c3[H])C(=O)N([H])[C@@]([H])(C([H])([H])c3c([H])nc([H])n3[H])C(=O)N3C([H])([H])C([H])([H])C([H])([H])[C@@]3([H])C(=O)N2[H])c([H])c1[H]
     RDKit          3D

132139  0  0  0  0  0  0  0  0999 V2000
    3.6985   -5.6500   -2.1919 C   0  0  0  0  0  0  0  0  0  0  0  0
    2.3929   -4.9446   -2.1361 C   0  0  0  0  0  0  0  0  0  0  0  0
    1.1988   -5.7922   -2.3964 C   0  0  0  0  0  0  0  0  0  0  0  0
    2.2295   -4.0324   -0.8986 C   0  0  2  0  0  0  0  0  0  0  0  0
    0.9186   -3.4782   -1.0314 N   0  0  0  0  0  0  0  0  0  0  0  0
   -0.1947   -3.6408   -0.1674 C   0  0  0  0  0  0  0  0  0  0  0  0
   -1.2324   -4.1690   -0.7317 O   0  0  0  0  0  0  0  0  0  0  0  0
   -0.3240   -3.3009    1.2349 C   0  0  2  0  0  0  0  0  0  0  0  0
   -0.1697   -4.5001    2.1632 C   0  0  0  0  0  0  0  0  0  0  0  0
   -1.1402   -5.5616    1.9718 C   0  0  0  0  0  0  0  0  0  0  0  0
   -2.3416   -5.5141    2.6865 C   0  0  0  0  0  0  0  0  0  0  0  0
   -3.3101   -6.5001    2.5572 C   0  0  0  0  0  0  0  0  0  0  0  0
   -3.1181   -7.5675    1.7130 C   0  0  0  0  0  0  0  0  0  0  0  0
   -1.9350   -7.6363    0.9937 C   0  0  0  0  0  0  0  0  0  0  0  0
   -0.9896   -6.6463    1.1392 C   0  0  0  0  0  0  0  0  0  0  0  0
   -1.4838   -2.5352    1.6080 N   0  0  0  0  0  0  0  0  0  0  0  0
   -2.3621   -1.7377    0.8816 C   0  0  0  0  0  0  0  0  0  0  0  0
   -3.6083   -2.0542    0.8934 O   0  0  0  0  0  0  0  0  0  0  0  0
   -2.0853   -0.5283    0.0637 C   0  0  1  0  0  0  0  0  0  0  0  0
   -2.3600   -0.7345   -1.3924 C   0  0  0  0  0  0  0  0  0  0  0  0
   -3.7175   -1.0729   -1.8159 C   0  0  0  0  0  0  0  0  0  0  0  0
   -4.2064   -2.3696   -2.0354 C   0  0  0  0  0  0  0  0  0  0  0  0
   -5.4982   -2.3199   -2.3954 N   0  0  0  0  0  0  0  0  0  0  0  0
   -5.9131   -1.0436   -2.4324 C   0  0  0  0  0  0  0  0  0  0  0  0
   -7.1471   -0.5048   -2.7651 C   0  0  0  0  0  0  0  0  0  0  0  0
   -7.2965    0.8473   -2.7441 C   0  0  0  0  0  0  0  0  0  0  0  0
   -6.2216    1.6563   -2.3936 C   0  0  0  0  0  0  0  0  0  0  0  0
   -5.0075    1.0964   -2.0675 C   0  0  0  0  0  0  0  0  0  0  0  0
   -4.8229   -0.2624   -2.0771 C   0  0  0  0  0  0  0  0  0  0  0  0
   -2.8265    0.6152    0.6115 N   0  0  0  0  0  0  0  0  0  0  0  0
   -2.3320    1.8561    0.9910 C   0  0  0  0  0  0  0  0  0  0  0  0
   -2.9327    2.8823    0.5059 O   0  0  0  0  0  0  0  0  0  0  0  0
   -1.1934    2.1763    1.8922 C   0  0  2  0  0  0  0  0  0  0  0  0
   -1.5599    2.7835    3.1934 C   0  0  0  0  0  0  0  0  0  0  0  0
   -2.2798    4.0458    3.2424 C   0  0  0  0  0  0  0  0  0  0  0  0
   -3.6473    4.0670    3.1871 C   0  0  0  0  0  0  0  0  0  0  0  0
   -4.3156    5.2675    3.2592 C   0  0  0  0  0  0  0  0  0  0  0  0
   -3.6857    6.4846    3.3869 C   0  0  0  0  0  0  0  0  0  0  0  0
   -4.3596    7.6966    3.4592 O   0  0  0  0  0  0  0  0  0  0  0  0
   -2.3005    6.4181    3.4396 C   0  0  0  0  0  0  0  0  0  0  0  0
   -1.6121    5.2285    3.3693 C   0  0  0  0  0  0  0  0  0  0  0  0
    0.0075    2.5710    1.2296 N   0  0  0  0  0  0  0  0  0  0  0  0
    0.7933    3.7005    1.0759 C   0  0  0  0  0  0  0  0  0  0  0  0
    1.7917    3.8198    1.9366 O   0  0  0  0  0  0  0  0  0  0  0  0
    0.8108    4.8328    0.1771 C   0  0  2  0  0  0  0  0  0  0  0  0
   -0.4906    5.3534   -0.3589 C   0  0  0  0  0  0  0  0  0  0  0  0
   -0.0246    6.3528   -1.4043 C   0  0  0  0  0  0  0  0  0  0  0  0
    1.4686    6.1161   -1.5157 C   0  0  0  0  0  0  0  0  0  0  0  0
    1.5400    4.7080   -1.0681 N   0  0  0  0  0  0  0  0  0  0  0  0
    2.1138    3.6151   -1.7034 C   0  0  0  0  0  0  0  0  0  0  0  0
    1.7408    3.3535   -2.9201 O   0  0  0  0  0  0  0  0  0  0  0  0
    3.1261    2.6396   -1.2274 C   0  0  2  0  0  0  0  0  0  0  0  0
    4.4997    3.2224   -1.5928 C   0  0  0  0  0  0  0  0  0  0  0  0
    4.7288    3.4515   -2.9977 C   0  0  0  0  0  0  0  0  0  0  0  0
    4.4468    4.5983   -3.7030 C   0  0  0  0  0  0  0  0  0  0  0  0
    4.8153    4.4338   -4.9870 N   0  0  0  0  0  0  0  0  0  0  0  0
    5.3283    3.1868   -5.0939 C   0  0  0  0  0  0  0  0  0  0  0  0
    5.2709    2.6018   -3.8834 N   0  0  0  0  0  0  0  0  0  0  0  0
    2.9139    1.3691   -1.8711 N   0  0  0  0  0  0  0  0  0  0  0  0
    2.2160    0.2396   -1.4422 C   0  0  0  0  0  0  0  0  0  0  0  0
    1.1367   -0.0926   -2.0631 O   0  0  0  0  0  0  0  0  0  0  0  0
    2.5666   -0.6868   -0.3046 C   0  0  2  0  0  0  0  0  0  0  0  0
    3.2872    0.0573    0.7783 C   0  0  0  0  0  0  0  0  0  0  0  0
    3.6630   -0.8108    1.9023 C   0  0  0  0  0  0  0  0  0  0  0  0
    2.7843   -1.0279    2.9404 C   0  0  0  0  0  0  0  0  0  0  0  0
    3.1189   -1.8126    4.0194 C   0  0  0  0  0  0  0  0  0  0  0  0
    4.3543   -2.4111    4.0967 C   0  0  0  0  0  0  0  0  0  0  0  0
    5.2557   -2.2104    3.0693 C   0  0  0  0  0  0  0  0  0  0  0  0
    4.8899   -1.4209    2.0055 C   0  0  0  0  0  0  0  0  0  0  0  0
    3.4041   -1.7006   -0.8793 N   0  0  0  0  0  0  0  0  0  0  0  0
    3.3508   -3.0796   -0.8317 C   0  0  0  0  0  0  0  0  0  0  0  0
    4.5153   -3.6587   -0.7040 O   0  0  0  0  0  0  0  0  0  0  0  0
    4.0525   -5.9808   -1.1961 H   0  0  0  0  0  0  0  0  0  0  0  0
    4.5246   -5.0689   -2.6688 H   0  0  0  0  0  0  0  0  0  0  0  0
    3.5587   -6.5311   -2.8741 H   0  0  0  0  0  0  0  0  0  0  0  0
    2.4141   -4.1883   -2.9857 H   0  0  0  0  0  0  0  0  0  0  0  0
    1.5158   -6.5238   -3.2010 H   0  0  0  0  0  0  0  0  0  0  0  0
    0.8491   -6.4098   -1.5768 H   0  0  0  0  0  0  0  0  0  0  0  0
    0.4121   -5.1835   -2.8868 H   0  0  0  0  0  0  0  0  0  0  0  0
    2.3532   -4.7190   -0.0308 H   0  0  0  0  0  0  0  0  0  0  0  0
    0.7704   -2.8913   -1.9108 H   0  0  0  0  0  0  0  0  0  0  0  0
    0.5529   -2.6576    1.5179 H   0  0  0  0  0  0  0  0  0  0  0  0
   -0.2178   -4.1220    3.2072 H   0  0  0  0  0  0  0  0  0  0  0  0
    0.8558   -4.9449    2.0492 H   0  0  0  0  0  0  0  0  0  0  0  0
   -2.5568   -4.7169    3.3601 H   0  0  0  0  0  0  0  0  0  0  0  0
   -4.2390   -6.4552    3.1155 H   0  0  0  0  0  0  0  0  0  0  0  0
   -3.8749   -8.3429    1.6088 H   0  0  0  0  0  0  0  0  0  0  0  0
   -1.8379   -8.4975    0.3476 H   0  0  0  0  0  0  0  0  0  0  0  0
   -0.0782   -6.7318    0.5708 H   0  0  0  0  0  0  0  0  0  0  0  0
   -1.7058   -2.6059    2.6631 H   0  0  0  0  0  0  0  0  0  0  0  0
   -0.9808   -0.3244    0.1279 H   0  0  0  0  0  0  0  0  0  0  0  0
   -2.1044    0.2340   -1.9403 H   0  0  0  0  0  0  0  0  0  0  0  0
   -1.6906   -1.5355   -1.8324 H   0  0  0  0  0  0  0  0  0  0  0  0
   -3.6904   -3.3130   -1.9506 H   0  0  0  0  0  0  0  0  0  0  0  0
   -6.1296   -3.1411   -2.6250 H   0  0  0  0  0  0  0  0  0  0  0  0
   -8.0003   -1.1152   -3.0432 H   0  0  0  0  0  0  0  0  0  0  0  0
   -8.2110    1.3594   -2.9858 H   0  0  0  0  0  0  0  0  0  0  0  0
   -6.3226    2.7389   -2.3726 H   0  0  0  0  0  0  0  0  0  0  0  0
   -4.1615    1.7126   -1.8084 H   0  0  0  0  0  0  0  0  0  0  0  0
   -3.8760    0.4350    0.7189 H   0  0  0  0  0  0  0  0  0  0  0  0
   -0.9094    1.0815    2.2668 H   0  0  0  0  0  0  0  0  0  0  0  0
   -2.1789    2.0744    3.8321 H   0  0  0  0  0  0  0  0  0  0  0  0
   -0.6023    2.8147    3.8110 H   0  0  0  0  0  0  0  0  0  0  0  0
   -4.2353    3.1349    3.0843 H   0  0  0  0  0  0  0  0  0  0  0  0
   -5.4047    5.3030    3.2156 H   0  0  0  0  0  0  0  0  0  0  0  0
   -4.5422    8.1705    2.5701 H   0  0  0  0  0  0  0  0  0  0  0  0
   -1.7562    7.3658    3.5408 H   0  0  0  0  0  0  0  0  0  0  0  0
   -0.5065    5.2728    3.4256 H   0  0  0  0  0  0  0  0  0  0  0  0
    0.4450    1.7053    0.6937 H   0  0  0  0  0  0  0  0  0  0  0  0
    1.2779    5.7435    0.6875 H   0  0  0  0  0  0  0  0  0  0  0  0
   -1.0093    4.5011   -0.8384 H   0  0  0  0  0  0  0  0  0  0  0  0
   -1.1147    5.8248    0.4082 H   0  0  0  0  0  0  0  0  0  0  0  0
   -0.2855    7.3793   -1.1496 H   0  0  0  0  0  0  0  0  0  0  0  0
   -0.4949    6.0530   -2.3738 H   0  0  0  0  0  0  0  0  0  0  0  0
    1.7402    6.2870   -2.5439 H   0  0  0  0  0  0  0  0  0  0  0  0
    1.9682    6.7641   -0.7672 H   0  0  0  0  0  0  0  0  0  0  0  0
    3.1763    2.5713   -0.1314 H   0  0  0  0  0  0  0  0  0  0  0  0
    5.2449    2.4890   -1.1633 H   0  0  0  0  0  0  0  0  0  0  0  0
    4.6095    4.1322   -0.9523 H   0  0  0  0  0  0  0  0  0  0  0  0
    3.9924    5.5148   -3.3019 H   0  0  0  0  0  0  0  0  0  0  0  0
    5.7304    2.6781   -5.9527 H   0  0  0  0  0  0  0  0  0  0  0  0
    5.5923    1.6265   -3.6271 H   0  0  0  0  0  0  0  0  0  0  0  0
    3.3511    1.3039   -2.8467 H   0  0  0  0  0  0  0  0  0  0  0  0
    1.6179   -1.1019    0.1069 H   0  0  0  0  0  0  0  0  0  0  0  0
    4.2149    0.4808    0.3533 H   0  0  0  0  0  0  0  0  0  0  0  0
    2.6152    0.8409    1.2424 H   0  0  0  0  0  0  0  0  0  0  0  0
    1.7889   -0.5649    2.9122 H   0  0  0  0  0  0  0  0  0  0  0  0
    2.4246   -1.9734    4.8245 H   0  0  0  0  0  0  0  0  0  0  0  0
    4.6534   -3.0396    4.9397 H   0  0  0  0  0  0  0  0  0  0  0  0
    6.2249   -2.6797    3.1287 H   0  0  0  0  0  0  0  0  0  0  0  0
    5.6371   -1.2881    1.2101 H   0  0  0  0  0  0  0  0  0  0  0  0
    4.2229   -1.2811   -1.4538 H   0  0  0  0  0  0  0  0  0  0  0  0
  1  2  1  0
  2  3  1  0
  2  4  1  0
  4  5  1  0
  5  6  1  0
  6  7  2  0
  6  8  1  0
  8  9  1  0
  9 10  1  0
 10 11  2  0
 11 12  1  0
 12 13  2  0
 13 14  1  0
 14 15  2  0
  8 16  1  0
 16 17  1  0
 17 18  2  0
 17 19  1  0
 19 20  1  0
 20 21  1  0
 21 22  2  0
 22 23  1  0
 23 24  1  0
 24 25  2  0
 25 26  1  0
 26 27  2  0
 27 28  1  0
 28 29  2  0
 19 30  1  0
 30 31  1  0
 31 32  2  0
 31 33  1  0
 33 34  1  0
 34 35  1  0
 35 36  2  0
 36 37  1  0
 37 38  2  0
 38 39  1  0
 38 40  1  0
 40 41  2  0
 33 42  1  0
 42 43  1  0
 43 44  2  0
 43 45  1  0
 45 46  1  0
 46 47  1  0
 47 48  1  0
 48 49  1  0
 49 50  1  0
 50 51  2  0
 50 52  1  0
 52 53  1  0
 53 54  1  0
 54 55  2  0
 55 56  1  0
 56 57  2  0
 57 58  1  0
 52 59  1  0
 59 60  1  0
 60 61  2  0
 60 62  1  0
 62 63  1  0
 63 64  1  0
 64 65  2  0
 65 66  1  0
 66 67  2  0
 67 68  1  0
 68 69  2  0
 62 70  1  0
 70 71  1  0
 71 72  2  0
 71  4  1  0
 15 10  1  0
 29 21  1  0
 41 35  1  0
 49 45  1  0
 58 54  1  0
 69 64  1  0
 29 24  1  0
  1 73  1  0
  1 74  1  0
  1 75  1  0
  2 76  1  0
  3 77  1  0
  3 78  1  0
  3 79  1  0
  4 80  1  1
  5 81  1  0
  8 82  1  1
  9 83  1  0
  9 84  1  0
 11 85  1  0
 12 86  1  0
 13 87  1  0
 14 88  1  0
 15 89  1  0
 16 90  1  0
 19 91  1  6
 20 92  1  0
 20 93  1  0
 22 94  1  0
 23 95  1  0
 25 96  1  0
 26 97  1  0
 27 98  1  0
 28 99  1  0
 30100  1  0
 33101  1  1
 34102  1  0
 34103  1  0
 36104  1  0
 37105  1  0
 39106  1  0
 40107  1  0
 41108  1  0
 42109  1  0
 45110  1  1
 46111  1  0
 46112  1  0
 47113  1  0
 47114  1  0
 48115  1  0
 48116  1  0
 52117  1  1
 53118  1  0
 53119  1  0
 55120  1  0
 57121  1  0
 58122  1  0
 59123  1  0
 62124  1  1
 63125  1  0
 63126  1  0
 65127  1  0
 66128  1  0
 67129  1  0
 68130  1  0
 69131  1  0
 70132  1  0
M  END
$$$$
[H]c1c([H])c(N([H])C(=O)c2c(C([H])([H])[H])c(C(=O)C(=O)N([H])C3(C#N)C([H])([H])C(F)(F)C3([H])[H])c3n2C([H])([H])C([H])([H])C3([H])[H])c([H])c(Cl)c1F
     RDKit          3D

 51 54  0  0  0  0  0  0  0  0999 V2000
    0.5145    1.5698    1.1178 C   0  0  0  0  0  0  0  0  0  0  0  0
    0.5323    0.0956    0.8106 C   0  0  0  0  0  0  0  0  0  0  0  0
   -0.6047   -0.7170    0.8669 C   0  0  0  0  0  0  0  0  0  0  0  0
   -1.9463   -0.2940    1.2097 C   0  0  0  0  0  0  0  0  0  0  0  0
   -2.2402   -0.3560    2.4495 O   0  0  0  0  0  0  0  0  0  0  0  0
   -2.9146    0.1738    0.2331 C   0  0  0  0  0  0  0  0  0  0  0  0
   -2.5884    0.2202   -0.9740 O   0  0  0  0  0  0  0  0  0  0  0  0
   -4.1919    0.5660    0.6388 N   0  0  0  0  0  0  0  0  0  0  0  0
   -5.2229    1.0446   -0.2541 C   0  0  0  0  0  0  0  0  0  0  0  0
   -6.5033    1.3958    0.4683 C   0  0  0  0  0  0  0  0  0  0  0  0
   -7.2571    0.7420   -0.6815 C   0  0  0  0  0  0  0  0  0  0  0  0
   -7.5836    1.6672   -1.6629 F   0  0  0  0  0  0  0  0  0  0  0  0
   -8.3197   -0.0403   -0.2866 F   0  0  0  0  0  0  0  0  0  0  0  0
   -5.9849   -0.0326   -0.9825 C   0  0  0  0  0  0  0  0  0  0  0  0
   -4.8128    2.1630   -1.1080 C   0  0  0  0  0  0  0  0  0  0  0  0
   -4.4888    3.0556   -1.7647 N   0  0  0  0  0  0  0  0  0  0  0  0
   -0.2144   -1.9804    0.5390 C   0  0  0  0  0  0  0  0  0  0  0  0
   -0.7464   -3.3890    0.3631 C   0  0  0  0  0  0  0  0  0  0  0  0
    0.5403   -4.1668    0.6775 C   0  0  0  0  0  0  0  0  0  0  0  0
    1.5367   -3.3097   -0.0686 C   0  0  0  0  0  0  0  0  0  0  0  0
    1.0935   -1.9542    0.2922 N   0  0  0  0  0  0  0  0  0  0  0  0
    1.5822   -0.6780    0.4532 C   0  0  0  0  0  0  0  0  0  0  0  0
    2.9768   -0.3313    0.2403 C   0  0  0  0  0  0  0  0  0  0  0  0
    3.7899   -1.2980   -0.0087 O   0  0  0  0  0  0  0  0  0  0  0  0
    3.5426    0.9372    0.2732 N   0  0  0  0  0  0  0  0  0  0  0  0
    4.9212    1.2112    0.0439 C   0  0  0  0  0  0  0  0  0  0  0  0
    5.4891    2.3642    0.6318 C   0  0  0  0  0  0  0  0  0  0  0  0
    6.7970    2.7298    0.4493 C   0  0  0  0  0  0  0  0  0  0  0  0
    7.6229    1.9548   -0.3408 C   0  0  0  0  0  0  0  0  0  0  0  0
    8.9139    2.3338   -0.5081 F   0  0  0  0  0  0  0  0  0  0  0  0
    7.1127    0.8351   -0.9258 C   0  0  0  0  0  0  0  0  0  0  0  0
    8.1580   -0.1470   -1.9267 Cl  0  0  0  0  0  0  0  0  0  0  0  0
    5.7767    0.4844   -0.7247 C   0  0  0  0  0  0  0  0  0  0  0  0
    1.1708    1.7677    1.9772 H   0  0  0  0  0  0  0  0  0  0  0  0
   -0.5238    1.8249    1.5033 H   0  0  0  0  0  0  0  0  0  0  0  0
    0.6628    2.1877    0.2347 H   0  0  0  0  0  0  0  0  0  0  0  0
   -4.4372    0.5155    1.6634 H   0  0  0  0  0  0  0  0  0  0  0  0
   -6.6869    2.4861    0.5635 H   0  0  0  0  0  0  0  0  0  0  0  0
   -6.6385    0.8478    1.4318 H   0  0  0  0  0  0  0  0  0  0  0  0
   -5.8246   -0.0578   -2.0819 H   0  0  0  0  0  0  0  0  0  0  0  0
   -5.9106   -1.0054   -0.4882 H   0  0  0  0  0  0  0  0  0  0  0  0
   -1.0303   -3.4768   -0.6903 H   0  0  0  0  0  0  0  0  0  0  0  0
   -1.5438   -3.6080    1.0855 H   0  0  0  0  0  0  0  0  0  0  0  0
    0.7004   -4.1307    1.7604 H   0  0  0  0  0  0  0  0  0  0  0  0
    0.4497   -5.1791    0.2593 H   0  0  0  0  0  0  0  0  0  0  0  0
    2.5746   -3.4961    0.2509 H   0  0  0  0  0  0  0  0  0  0  0  0
    1.3948   -3.5002   -1.1547 H   0  0  0  0  0  0  0  0  0  0  0  0
    2.9546    1.7741    0.4677 H   0  0  0  0  0  0  0  0  0  0  0  0
    4.8125    2.9539    1.2494 H   0  0  0  0  0  0  0  0  0  0  0  0
    7.1449    3.6401    0.9463 H   0  0  0  0  0  0  0  0  0  0  0  0
    5.4507   -0.3937   -1.2337 H   0  0  0  0  0  0  0  0  0  0  0  0
  1  2  1  0
  2  3  1  0
  3  4  1  0
  4  5  2  0
  4  6  1  0
  6  7  2  0
  6  8  1  0
  8  9  1  0
  9 10  1  0
 10 11  1  0
 11 12  1  0
 11 13  1  0
 11 14  1  0
  9 15  1  0
 15 16  3  0
  3 17  2  0
 17 18  1  0
 18 19  1  0
 19 20  1  0
 20 21  1  0
 21 22  1  0
 22 23  1  0
 23 24  2  0
 23 25  1  0
 25 26  1  0
 26 27  2  0
 27 28  1  0
 28 29  2  0
 29 30  1  0
 29 31  1  0
 31 32  1  0
 31 33  2  0
 22  2  2  0
 33 26  1  0
 14  9  1  0
 21 17  1  0
  1 34  1  0
  1 35  1  0
  1 36  1  0
  8 37  1  0
 10 38  1  0
 10 39  1  0
 14 40  1  0
 14 41  1  0
 18 42  1  0
 18 43  1  0
 19 44  1  0
 19 45  1  0
 20 46  1  0
 20 47  1  0
 25 48  1  0
 27 49  1  0
 28 50  1  0
 33 51  1  0
M  END
$$$$
[H]c1nc([H])c(Cl)c(N([H])C(=O)N([H])c2c([H])c(-c3c([H])c([H])c([H])c(-c4c([H])c([H])c([H])c(C(=O)N([H])C([H])([H])C([H])([H])N5C([H])([H])C([H])([H])OC([H])([H])C5([H])[H])c4[H])c3[H])nn(C([H])([H])C([H])([H])[H])c2=O)c1Cl
     RDKit          3D

 75 79  0  0  0  0  0  0  0  0999 V2000
    4.1284   -4.9952    0.8544 C   0  0  0  0  0  0  0  0  0  0  0  0
    4.1979   -4.3678   -0.5294 C   0  0  0  0  0  0  0  0  0  0  0  0
    4.5325   -2.9528   -0.4061 N   0  0  0  0  0  0  0  0  0  0  0  0
    3.5981   -2.0582   -0.2861 N   0  0  0  0  0  0  0  0  0  0  0  0
    3.8321   -0.7459   -0.1671 C   0  0  0  0  0  0  0  0  0  0  0  0
    5.1345   -0.2924   -0.1694 C   0  0  0  0  0  0  0  0  0  0  0  0
    6.1522   -1.2079   -0.2938 C   0  0  0  0  0  0  0  0  0  0  0  0
    7.5105   -0.8805   -0.2986 N   0  0  0  0  0  0  0  0  0  0  0  0
    8.0884    0.3781   -0.1839 C   0  0  0  0  0  0  0  0  0  0  0  0
    7.4240    1.4191   -0.0587 O   0  0  0  0  0  0  0  0  0  0  0  0
    9.5225    0.4760   -0.2103 N   0  0  0  0  0  0  0  0  0  0  0  0
   10.1065    1.7496   -0.0904 C   0  0  0  0  0  0  0  0  0  0  0  0
   10.3770    2.5280   -1.2036 C   0  0  0  0  0  0  0  0  0  0  0  0
    9.9852    1.9187   -2.8059 Cl  0  0  0  0  0  0  0  0  0  0  0  0
   10.9511    3.7646   -0.9997 C   0  0  0  0  0  0  0  0  0  0  0  0
   11.2427    4.2074    0.2465 N   0  0  0  0  0  0  0  0  0  0  0  0
   10.9733    3.4377    1.3223 C   0  0  0  0  0  0  0  0  0  0  0  0
   10.4022    2.1944    1.2018 C   0  0  0  0  0  0  0  0  0  0  0  0
   10.0426    1.1740    2.5858 Cl  0  0  0  0  0  0  0  0  0  0  0  0
    5.8016   -2.5685   -0.4137 C   0  0  0  0  0  0  0  0  0  0  0  0
    6.6897   -3.4687   -0.5327 O   0  0  0  0  0  0  0  0  0  0  0  0
    2.6721    0.1581   -0.0194 C   0  0  0  0  0  0  0  0  0  0  0  0
    2.7817    1.5195    0.0610 C   0  0  0  0  0  0  0  0  0  0  0  0
    1.6408    2.3127    0.2204 C   0  0  0  0  0  0  0  0  0  0  0  0
    0.3858    1.7159    0.2981 C   0  0  0  0  0  0  0  0  0  0  0  0
    0.2502    0.3444    0.2197 C   0  0  0  0  0  0  0  0  0  0  0  0
    1.4124   -0.3777    0.0624 C   0  0  0  0  0  0  0  0  0  0  0  0
   -1.0594   -0.2807    0.3181 C   0  0  0  0  0  0  0  0  0  0  0  0
   -1.1795   -1.5539    0.8699 C   0  0  0  0  0  0  0  0  0  0  0  0
   -2.3864   -2.1865    0.9984 C   0  0  0  0  0  0  0  0  0  0  0  0
   -3.5413   -1.5450    0.5661 C   0  0  0  0  0  0  0  0  0  0  0  0
   -3.4669   -0.2884    0.0157 C   0  0  0  0  0  0  0  0  0  0  0  0
   -2.2162    0.3295   -0.1010 C   0  0  0  0  0  0  0  0  0  0  0  0
   -4.6422    0.4318   -0.4429 C   0  0  0  0  0  0  0  0  0  0  0  0
   -4.5254    1.4887   -1.1492 O   0  0  0  0  0  0  0  0  0  0  0  0
   -5.9391   -0.0407   -0.1030 N   0  0  0  0  0  0  0  0  0  0  0  0
   -7.1253    0.6758   -0.5568 C   0  0  0  0  0  0  0  0  0  0  0  0
   -8.3375   -0.0440   -0.0491 C   0  0  0  0  0  0  0  0  0  0  0  0
   -9.5711    0.5265   -0.4059 N   0  0  0  0  0  0  0  0  0  0  0  0
   -9.9063    1.7783    0.1576 C   0  0  0  0  0  0  0  0  0  0  0  0
  -11.2302    2.3298   -0.2593 C   0  0  0  0  0  0  0  0  0  0  0  0
  -11.8710    1.7206   -1.2647 O   0  0  0  0  0  0  0  0  0  0  0  0
  -11.6348    0.4495   -1.5863 C   0  0  0  0  0  0  0  0  0  0  0  0
  -10.6411   -0.3136   -0.7712 C   0  0  0  0  0  0  0  0  0  0  0  0
    5.0126   -5.6564    0.9763 H   0  0  0  0  0  0  0  0  0  0  0  0
    3.2388   -5.6336    0.9402 H   0  0  0  0  0  0  0  0  0  0  0  0
    4.0981   -4.1891    1.6311 H   0  0  0  0  0  0  0  0  0  0  0  0
    3.1946   -4.4554   -0.9783 H   0  0  0  0  0  0  0  0  0  0  0  0
    4.9963   -4.8235   -1.1505 H   0  0  0  0  0  0  0  0  0  0  0  0
    5.2882    0.7517   -0.0742 H   0  0  0  0  0  0  0  0  0  0  0  0
    8.2062   -1.7100   -0.4036 H   0  0  0  0  0  0  0  0  0  0  0  0
   10.1088   -0.3542   -0.3122 H   0  0  0  0  0  0  0  0  0  0  0  0
   11.1670    4.3826   -1.8653 H   0  0  0  0  0  0  0  0  0  0  0  0
   11.1983    3.7693    2.3467 H   0  0  0  0  0  0  0  0  0  0  0  0
    3.7237    2.0033    0.0042 H   0  0  0  0  0  0  0  0  0  0  0  0
    1.7269    3.3989    0.2843 H   0  0  0  0  0  0  0  0  0  0  0  0
   -0.4855    2.3412    0.4207 H   0  0  0  0  0  0  0  0  0  0  0  0
    1.2868   -1.4666    0.0009 H   0  0  0  0  0  0  0  0  0  0  0  0
   -0.2673   -2.0377    1.2017 H   0  0  0  0  0  0  0  0  0  0  0  0
   -2.4573   -3.1797    1.4319 H   0  0  0  0  0  0  0  0  0  0  0  0
   -4.4641   -2.0779    0.6839 H   0  0  0  0  0  0  0  0  0  0  0  0
   -2.1918    1.3093   -0.5352 H   0  0  0  0  0  0  0  0  0  0  0  0
   -6.0612   -0.8915    0.4675 H   0  0  0  0  0  0  0  0  0  0  0  0
   -7.0676    0.7170   -1.6606 H   0  0  0  0  0  0  0  0  0  0  0  0
   -7.0315    1.7082   -0.1884 H   0  0  0  0  0  0  0  0  0  0  0  0
   -8.2893   -1.0911   -0.3955 H   0  0  0  0  0  0  0  0  0  0  0  0
   -8.2645   -0.0199    1.0793 H   0  0  0  0  0  0  0  0  0  0  0  0
   -9.8672    1.6872    1.2677 H   0  0  0  0  0  0  0  0  0  0  0  0
   -9.0611    2.4891   -0.0861 H   0  0  0  0  0  0  0  0  0  0  0  0
  -11.0636    3.4074   -0.5433 H   0  0  0  0  0  0  0  0  0  0  0  0
  -11.9176    2.3910    0.6315 H   0  0  0  0  0  0  0  0  0  0  0  0
  -12.6019   -0.1301   -1.5454 H   0  0  0  0  0  0  0  0  0  0  0  0
  -11.3319    0.3898   -2.6716 H   0  0  0  0  0  0  0  0  0  0  0  0
  -11.1301   -0.7403    0.1182 H   0  0  0  0  0  0  0  0  0  0  0  0
  -10.2556   -1.1494   -1.4022 H   0  0  0  0  0  0  0  0  0  0  0  0
  1  2  1  0
  2  3  1  0
  3  4  1  0
  4  5  2  0
  5  6  1  0
  6  7  2  0
  7  8  1  0
  8  9  1  0
  9 10  2  0
  9 11  1  0
 11 12  1  0
 12 13  2  0
 13 14  1  0
 13 15  1  0
 15 16  2  0
 16 17  1  0
 17 18  2  0
 18 19  1  0
  7 20  1  0
 20 21  2  0
  5 22  1  0
 22 23  2  0
 23 24  1  0
 24 25  2  0
 25 26  1  0
 26 27  2  0
 26 28  1  0
 28 29  2  0
 29 30  1  0
 30 31  2  0
 31 32  1  0
 32 33  2  0
 32 34  1  0
 34 35  2  0
 34 36  1  0
 36 37  1  0
 37 38  1  0
 38 39  1  0
 39 40  1  0
 40 41  1  0
 41 42  1  0
 42 43  1  0
 43 44  1  0
 20  3  1  0
 27 22  1  0
 33 28  1  0
 44 39  1  0
 18 12  1  0
  1 45  1  0
  1 46  1  0
  1 47  1  0
  2 48  1  0
  2 49  1  0
  6 50  1  0
  8 51  1  0
 11 52  1  0
 15 53  1  0
 17 54  1  0
 23 55  1  0
 24 56  1  0
 25 57  1  0
 27 58  1  0
 29 59  1  0
 30 60  1  0
 31 61  1  0
 33 62  1  0
 36 63  1  0
 37 64  1  0
 37 65  1  0
 38 66  1  0
 38 67  1  0
 40 68  1  0
 40 69  1  0
 41 70  1  0
 41 71  1  0
 43 72  1  0
 43 73  1  0
 44 74  1  0
 44 75  1  0
M  END
$$$$
[H]c1nc(N([H])C(=O)c2c([H])c([H])c(C3([H])C([H])([H])C([H])([H])N(C([H])(C([H])([H])[H])C([H])([H])[H])C([H])([H])C3([H])[H])c([H])c2[H])c([H])c(Oc2c(OC([H])([H])[H])c([H])c3c(c2[H])c([H])c([H])n3C(=O)N([H])C([H])([H])[H])c1[H]
     RDKit          3D

 75 79  0  0  0  0  0  0  0  0999 V2000
   12.3420   -1.6616   -0.6990 C   0  0  0  0  0  0  0  0  0  0  0  0
   11.0401   -0.9362   -0.5579 N   0  0  0  0  0  0  0  0  0  0  0  0
   11.0533    0.2764    0.0965 C   0  0  0  0  0  0  0  0  0  0  0  0
   12.2367    0.6428    0.5200 O   0  0  0  0  0  0  0  0  0  0  0  0
   10.0081    1.1697    0.3769 N   0  0  0  0  0  0  0  0  0  0  0  0
   10.1891    2.3639    1.0526 C   0  0  0  0  0  0  0  0  0  0  0  0
    8.9902    3.0021    1.1598 C   0  0  0  0  0  0  0  0  0  0  0  0
    8.0411    2.2142    0.5513 C   0  0  0  0  0  0  0  0  0  0  0  0
    6.6879    2.3768    0.3707 C   0  0  0  0  0  0  0  0  0  0  0  0
    5.9325    1.4302   -0.2870 C   0  0  0  0  0  0  0  0  0  0  0  0
    4.5843    1.6220   -0.4550 O   0  0  0  0  0  0  0  0  0  0  0  0
    3.6664    0.7600    0.1162 C   0  0  0  0  0  0  0  0  0  0  0  0
    4.0199   -0.2194    1.0200 C   0  0  0  0  0  0  0  0  0  0  0  0
    3.0632   -1.0684    1.5723 C   0  0  0  0  0  0  0  0  0  0  0  0
    1.7788   -0.9189    1.2088 N   0  0  0  0  0  0  0  0  0  0  0  0
    1.4009    0.0310    0.3253 C   0  0  0  0  0  0  0  0  0  0  0  0
    0.0426    0.1890   -0.0504 N   0  0  0  0  0  0  0  0  0  0  0  0
   -0.9267   -0.6688    0.5472 C   0  0  0  0  0  0  0  0  0  0  0  0
   -0.6067   -1.5351    1.3856 O   0  0  0  0  0  0  0  0  0  0  0  0
   -2.3570   -0.5559    0.1890 C   0  0  0  0  0  0  0  0  0  0  0  0
   -2.7788    0.1208   -0.9348 C   0  0  0  0  0  0  0  0  0  0  0  0
   -4.1328    0.2007   -1.2109 C   0  0  0  0  0  0  0  0  0  0  0  0
   -5.1018   -0.3651   -0.4171 C   0  0  0  0  0  0  0  0  0  0  0  0
   -4.6456   -1.0388    0.7053 C   0  0  0  0  0  0  0  0  0  0  0  0
   -3.3103   -1.1384    1.0109 C   0  0  0  0  0  0  0  0  0  0  0  0
   -6.5148   -0.2302   -0.7985 C   0  0  0  0  0  0  0  0  0  0  0  0
   -7.2465    0.7776    0.0689 C   0  0  0  0  0  0  0  0  0  0  0  0
   -8.1890    0.1177    1.0458 C   0  0  0  0  0  0  0  0  0  0  0  0
   -9.2506   -0.5261    0.3378 N   0  0  0  0  0  0  0  0  0  0  0  0
   -8.7525   -1.2128   -0.8531 C   0  0  0  0  0  0  0  0  0  0  0  0
   -7.2729   -1.5180   -0.7413 C   0  0  0  0  0  0  0  0  0  0  0  0
  -10.2698    0.3917   -0.1220 C   0  0  0  0  0  0  0  0  0  0  0  0
  -11.4261   -0.3845   -0.7075 C   0  0  0  0  0  0  0  0  0  0  0  0
  -10.7430    1.3572    0.9090 C   0  0  0  0  0  0  0  0  0  0  0  0
    2.3210    0.8854   -0.2377 C   0  0  0  0  0  0  0  0  0  0  0  0
    6.5866    0.3153   -0.7558 C   0  0  0  0  0  0  0  0  0  0  0  0
    5.8477   -0.6466   -1.4200 O   0  0  0  0  0  0  0  0  0  0  0  0
    6.4380   -1.8280   -1.9372 C   0  0  0  0  0  0  0  0  0  0  0  0
    7.9409    0.1364   -0.5836 C   0  0  0  0  0  0  0  0  0  0  0  0
    8.7089    1.0739    0.0712 C   0  0  0  0  0  0  0  0  0  0  0  0
   12.3360   -2.4201    0.0945 H   0  0  0  0  0  0  0  0  0  0  0  0
   13.1788   -0.9547   -0.5316 H   0  0  0  0  0  0  0  0  0  0  0  0
   12.4475   -2.0475   -1.7202 H   0  0  0  0  0  0  0  0  0  0  0  0
   10.2571   -1.4370   -0.9773 H   0  0  0  0  0  0  0  0  0  0  0  0
   11.1188    2.7352    1.4334 H   0  0  0  0  0  0  0  0  0  0  0  0
    8.7709    3.9673    1.6354 H   0  0  0  0  0  0  0  0  0  0  0  0
    6.2185    3.2692    0.7552 H   0  0  0  0  0  0  0  0  0  0  0  0
    5.0637   -0.3453    1.3269 H   0  0  0  0  0  0  0  0  0  0  0  0
    3.3912   -1.8225    2.2814 H   0  0  0  0  0  0  0  0  0  0  0  0
   -0.2219    0.9157   -0.7517 H   0  0  0  0  0  0  0  0  0  0  0  0
   -2.0332    0.5762   -1.5816 H   0  0  0  0  0  0  0  0  0  0  0  0
   -4.4139    0.7518   -2.1239 H   0  0  0  0  0  0  0  0  0  0  0  0
   -5.3952   -1.4900    1.3392 H   0  0  0  0  0  0  0  0  0  0  0  0
   -2.9818   -1.6759    1.9022 H   0  0  0  0  0  0  0  0  0  0  0  0
   -6.5654    0.1698   -1.8351 H   0  0  0  0  0  0  0  0  0  0  0  0
   -7.8695    1.4404   -0.5630 H   0  0  0  0  0  0  0  0  0  0  0  0
   -6.5219    1.4600    0.5834 H   0  0  0  0  0  0  0  0  0  0  0  0
   -7.6359   -0.6646    1.6411 H   0  0  0  0  0  0  0  0  0  0  0  0
   -8.5562    0.8962    1.7498 H   0  0  0  0  0  0  0  0  0  0  0  0
   -8.9864   -0.6603   -1.7804 H   0  0  0  0  0  0  0  0  0  0  0  0
   -9.2729   -2.2156   -0.8505 H   0  0  0  0  0  0  0  0  0  0  0  0
   -7.0016   -2.1259   -1.6230 H   0  0  0  0  0  0  0  0  0  0  0  0
   -7.1444   -2.0564    0.2191 H   0  0  0  0  0  0  0  0  0  0  0  0
   -9.8174    0.9659   -0.9589 H   0  0  0  0  0  0  0  0  0  0  0  0
  -12.0470   -0.8652    0.0870 H   0  0  0  0  0  0  0  0  0  0  0  0
  -12.0948    0.3153   -1.2389 H   0  0  0  0  0  0  0  0  0  0  0  0
  -11.0347   -1.1171   -1.4299 H   0  0  0  0  0  0  0  0  0  0  0  0
  -11.0442    0.8201    1.8187 H   0  0  0  0  0  0  0  0  0  0  0  0
  -10.0163    2.1747    1.0915 H   0  0  0  0  0  0  0  0  0  0  0  0
  -11.6667    1.8481    0.4998 H   0  0  0  0  0  0  0  0  0  0  0  0
    2.0198    1.6455   -0.9441 H   0  0  0  0  0  0  0  0  0  0  0  0
    6.9737   -2.3129   -1.0731 H   0  0  0  0  0  0  0  0  0  0  0  0
    7.1509   -1.4982   -2.7198 H   0  0  0  0  0  0  0  0  0  0  0  0
    5.6430   -2.4875   -2.3345 H   0  0  0  0  0  0  0  0  0  0  0  0
    8.3566   -0.7568   -0.9798 H   0  0  0  0  0  0  0  0  0  0  0  0
  1  2  1  0
  2  3  1  0
  3  4  2  0
  3  5  1  0
  5  6  1  0
  6  7  2  0
  7  8  1  0
  8  9  2  0
  9 10  1  0
 10 11  1  0
 11 12  1  0
 12 13  2  0
 13 14  1  0
 14 15  2  0
 15 16  1  0
 16 17  1  0
 17 18  1  0
 18 19  2  0
 18 20  1  0
 20 21  2  0
 21 22  1  0
 22 23  2  0
 23 24  1  0
 24 25  2  0
 23 26  1  0
 26 27  1  0
 27 28  1  0
 28 29  1  0
 29 30  1  0
 30 31  1  0
 29 32  1  0
 32 33  1  0
 32 34  1  0
 16 35  2  0
 10 36  2  0
 36 37  1  0
 37 38  1  0
 36 39  1  0
 39 40  2  0
 40  5  1  0
 40  8  1  0
 35 12  1  0
 25 20  1  0
 31 26  1  0
  1 41  1  0
  1 42  1  0
  1 43  1  0
  2 44  1  0
  6 45  1  0
  7 46  1  0
  9 47  1  0
 13 48  1  0
 14 49  1  0
 17 50  1  0
 21 51  1  0
 22 52  1  0
 24 53  1  0
 25 54  1  0
 26 55  1  0
 27 56  1  0
 27 57  1  0
 28 58  1  0
 28 59  1  0
 30 60  1  0
 30 61  1  0
 31 62  1  0
 31 63  1  0
 32 64  1  0
 33 65  1  0
 33 66  1  0
 33 67  1  0
 34 68  1  0
 34 69  1  0
 34 70  1  0
 35 71  1  0
 38 72  1  0
 38 73  1  0
 38 74  1  0
 39 75  1  0
M  END
$$$$
[H]c1nc(N2C([H])([H])[C@@]3([H])N(C([H])([H])[H])C([H])([H])[C@]2([H])C3([H])[H])c([H])nc1-c1c([H])nc([H])c([H])c1[H]
     RDKit          3D

 37 40  0  0  0  0  0  0  0  0999 V2000
   -5.5029   -0.1930    0.3378 C   0  0  0  0  0  0  0  0  0  0  0  0
   -4.1626   -0.7376    0.2336 N   0  0  0  0  0  0  0  0  0  0  0  0
   -3.3036    0.0278    1.1417 C   0  0  0  0  0  0  0  0  0  0  0  0
   -2.3959    0.8526    0.2518 C   0  0  2  0  0  0  0  0  0  0  0  0
   -3.3511    1.0525   -0.9419 C   0  0  0  0  0  0  0  0  0  0  0  0
   -3.6450   -0.4537   -1.0800 C   0  0  1  0  0  0  0  0  0  0  0  0
   -2.2331   -0.9828   -1.1369 C   0  0  0  0  0  0  0  0  0  0  0  0
   -1.4549   -0.0456   -0.3363 N   0  0  0  0  0  0  0  0  0  0  0  0
   -0.0499   -0.0043   -0.1558 C   0  0  0  0  0  0  0  0  0  0  0  0
    0.7970   -0.9188   -0.7663 C   0  0  0  0  0  0  0  0  0  0  0  0
    2.1265   -0.8656   -0.5848 N   0  0  0  0  0  0  0  0  0  0  0  0
    2.7063    0.0817    0.2018 C   0  0  0  0  0  0  0  0  0  0  0  0
    1.8639    0.9798    0.8003 C   0  0  0  0  0  0  0  0  0  0  0  0
    0.5109    0.9325    0.6208 N   0  0  0  0  0  0  0  0  0  0  0  0
    4.1497    0.1220    0.3855 C   0  0  0  0  0  0  0  0  0  0  0  0
    4.9481   -0.8313   -0.2598 C   0  0  0  0  0  0  0  0  0  0  0  0
    6.3177   -0.8323   -0.1155 C   0  0  0  0  0  0  0  0  0  0  0  0
    6.9510    0.1063    0.6702 C   0  0  0  0  0  0  0  0  0  0  0  0
    6.1816    1.0180    1.2868 N   0  0  0  0  0  0  0  0  0  0  0  0
    4.8211    1.0361    1.1566 C   0  0  0  0  0  0  0  0  0  0  0  0
   -6.1320   -0.7966    1.0547 H   0  0  0  0  0  0  0  0  0  0  0  0
   -5.5241    0.8384    0.7262 H   0  0  0  0  0  0  0  0  0  0  0  0
   -6.0105   -0.1725   -0.6595 H   0  0  0  0  0  0  0  0  0  0  0  0
   -2.6653   -0.7446    1.6578 H   0  0  0  0  0  0  0  0  0  0  0  0
   -3.8895    0.6271    1.8434 H   0  0  0  0  0  0  0  0  0  0  0  0
   -2.0305    1.7619    0.6700 H   0  0  0  0  0  0  0  0  0  0  0  0
   -4.2422    1.6158   -0.6576 H   0  0  0  0  0  0  0  0  0  0  0  0
   -2.8158    1.4294   -1.8226 H   0  0  0  0  0  0  0  0  0  0  0  0
   -4.2744   -0.6946   -1.9074 H   0  0  0  0  0  0  0  0  0  0  0  0
   -1.8461   -1.0411   -2.1765 H   0  0  0  0  0  0  0  0  0  0  0  0
   -2.1580   -2.0205   -0.7330 H   0  0  0  0  0  0  0  0  0  0  0  0
    0.3587   -1.6884   -1.4020 H   0  0  0  0  0  0  0  0  0  0  0  0
    2.2631    1.7588    1.4390 H   0  0  0  0  0  0  0  0  0  0  0  0
    4.4565   -1.5780   -0.8836 H   0  0  0  0  0  0  0  0  0  0  0  0
    6.9565   -1.5604   -0.6054 H   0  0  0  0  0  0  0  0  0  0  0  0
    8.0370    0.1199    0.7956 H   0  0  0  0  0  0  0  0  0  0  0  0
    4.2418    1.8010    1.6809 H   0  0  0  0  0  0  0  0  0  0  0  0
  1  2  1  0
  2  3  1  0
  3  4  1  0
  4  5  1  0
  5  6  1  0
  6  7  1  0
  7  8  1  0
  8  9  1  0
  9 10  2  0
 10 11  1  0
 11 12  2  0
 12 13  1  0
 13 14  2  0
 12 15  1  0
 15 16  2  0
 16 17  1  0
 17 18  2  0
 18 19  1  0
 19 20  2  0
  6  2  1  0
 14  9  1  0
 20 15  1  0
  8  4  1  0
  1 21  1  0
  1 22  1  0
  1 23  1  0
  3 24  1  0
  3 25  1  0
  4 26  1  1
  5 27  1  0
  5 28  1  0
  6 29  1  6
  7 30  1  0
  7 31  1  0
 10 32  1  0
 13 33  1  0
 16 34  1  0
 17 35  1  0
 18 36  1  0
 20 37  1  0
M  END
$$$$
[H]N=C(N([H])[H])N([H])C([H])([H])C([H])([H])C([H])([H])[C@@]([H])(C([H])=O)N([H])C(=O)[C@@]([H])(N([H])C(=O)[C@@]([H])(N([H])C(=O)OC([H])([H])c1c([H])c([H])c([H])c([H])c1[H])C([H])([H])c1c([H])c([H])c([H])c([H])c1[H])C([H])([H])C([H])([H])C([H])([H])N=C(N([H])[H])N([H])[H]
     RDKit          3D

 84 85  0  0  0  0  0  0  0  0999 V2000
    6.1671    4.0347   -2.0207 N   0  0  0  0  0  0  0  0  0  0  0  0
    4.8884    4.6316   -1.8830 C   0  0  0  0  0  0  0  0  0  0  0  0
    4.7201    5.7356   -1.0286 N   0  0  0  0  0  0  0  0  0  0  0  0
    3.9211    4.1406   -2.5521 N   0  0  0  0  0  0  0  0  0  0  0  0
    2.5787    4.6294   -2.5212 C   0  0  0  0  0  0  0  0  0  0  0  0
    1.6835    3.7389   -1.6419 C   0  0  0  0  0  0  0  0  0  0  0  0
    1.7477    2.3693   -2.2610 C   0  0  0  0  0  0  0  0  0  0  0  0
    0.9737    1.3177   -1.5844 C   0  0  2  0  0  0  0  0  0  0  0  0
   -0.4599    1.5223   -1.4906 N   0  0  0  0  0  0  0  0  0  0  0  0
   -1.3144    0.3920   -1.5758 C   0  0  0  0  0  0  0  0  0  0  0  0
   -0.7748   -0.7551   -1.7275 O   0  0  0  0  0  0  0  0  0  0  0  0
   -2.8065    0.4783   -1.4918 C   0  0  2  0  0  0  0  0  0  0  0  0
   -3.2643    1.8327   -1.0827 C   0  0  0  0  0  0  0  0  0  0  0  0
   -4.7314    1.9477   -0.9869 C   0  0  0  0  0  0  0  0  0  0  0  0
   -5.4445    2.2847   -2.1078 C   0  0  0  0  0  0  0  0  0  0  0  0
   -6.8146    2.3989   -2.0309 C   0  0  0  0  0  0  0  0  0  0  0  0
   -7.5014    2.1845   -0.8565 C   0  0  0  0  0  0  0  0  0  0  0  0
   -6.7925    1.8456    0.2733 C   0  0  0  0  0  0  0  0  0  0  0  0
   -5.4251    1.7350    0.1830 C   0  0  0  0  0  0  0  0  0  0  0  0
   -3.3538   -0.6226   -0.7761 N   0  0  0  0  0  0  0  0  0  0  0  0
   -4.0838   -1.6844   -1.3730 C   0  0  0  0  0  0  0  0  0  0  0  0
   -4.3139   -1.7336   -2.6122 O   0  0  0  0  0  0  0  0  0  0  0  0
   -4.5838   -2.7362   -0.6018 O   0  0  0  0  0  0  0  0  0  0  0  0
   -5.3021   -3.8062   -1.1245 C   0  0  0  0  0  0  0  0  0  0  0  0
   -5.6473   -4.7326    0.0172 C   0  0  0  0  0  0  0  0  0  0  0  0
   -6.3116   -5.9200   -0.1960 C   0  0  0  0  0  0  0  0  0  0  0  0
   -6.6020   -6.7540    0.8902 C   0  0  0  0  0  0  0  0  0  0  0  0
   -6.2276   -6.3918    2.1610 C   0  0  0  0  0  0  0  0  0  0  0  0
   -5.5702   -5.2221    2.3947 C   0  0  0  0  0  0  0  0  0  0  0  0
   -5.2928   -4.4136    1.3119 C   0  0  0  0  0  0  0  0  0  0  0  0
    1.5281    0.9859   -0.2289 C   0  0  0  0  0  0  0  0  0  0  0  0
    0.7263    0.9207    0.7356 O   0  0  0  0  0  0  0  0  0  0  0  0
    2.8782    0.7479   -0.0056 N   0  0  0  0  0  0  0  0  0  0  0  0
    3.3904    0.3960    1.3633 C   0  0  1  0  0  0  0  0  0  0  0  0
    4.1685   -0.8455    1.1797 C   0  0  0  0  0  0  0  0  0  0  0  0
    4.8008   -1.5601    2.2828 C   0  0  0  0  0  0  0  0  0  0  0  0
    5.8398   -0.8720    3.1076 C   0  0  0  0  0  0  0  0  0  0  0  0
    6.3453   -1.8802    4.0756 N   0  0  0  0  0  0  0  0  0  0  0  0
    7.1090   -2.9753    3.6064 C   0  0  0  0  0  0  0  0  0  0  0  0
    6.4894   -4.2183    3.3079 N   0  0  0  0  0  0  0  0  0  0  0  0
    8.3903   -2.9222    3.4222 N   0  0  0  0  0  0  0  0  0  0  0  0
    4.1077    1.5962    1.8299 C   0  0  0  0  0  0  0  0  0  0  0  0
    4.2458    2.5824    1.0687 O   0  0  0  0  0  0  0  0  0  0  0  0
    6.5738    3.5004   -1.2248 H   0  0  0  0  0  0  0  0  0  0  0  0
    6.7326    4.1000   -2.8797 H   0  0  0  0  0  0  0  0  0  0  0  0
    4.6548    6.7241   -1.4065 H   0  0  0  0  0  0  0  0  0  0  0  0
    4.6523    5.6495   -0.0001 H   0  0  0  0  0  0  0  0  0  0  0  0
    2.1059    4.6083   -3.5248 H   0  0  0  0  0  0  0  0  0  0  0  0
    2.5072    5.6566   -2.0868 H   0  0  0  0  0  0  0  0  0  0  0  0
    0.6659    4.1721   -1.7112 H   0  0  0  0  0  0  0  0  0  0  0  0
    2.0053    3.7473   -0.5964 H   0  0  0  0  0  0  0  0  0  0  0  0
    2.7860    2.0262   -2.4054 H   0  0  0  0  0  0  0  0  0  0  0  0
    1.3282    2.4832   -3.3020 H   0  0  0  0  0  0  0  0  0  0  0  0
    1.1116    0.3428   -2.1449 H   0  0  0  0  0  0  0  0  0  0  0  0
   -0.8807    2.4681   -1.3654 H   0  0  0  0  0  0  0  0  0  0  0  0
   -3.1358    0.3306   -2.5737 H   0  0  0  0  0  0  0  0  0  0  0  0
   -2.8580    2.6153   -1.7839 H   0  0  0  0  0  0  0  0  0  0  0  0
   -2.8199    2.1076   -0.0904 H   0  0  0  0  0  0  0  0  0  0  0  0
   -4.9526    2.4692   -3.0717 H   0  0  0  0  0  0  0  0  0  0  0  0
   -7.4126    2.6667   -2.9186 H   0  0  0  0  0  0  0  0  0  0  0  0
   -8.5998    2.2804   -0.8114 H   0  0  0  0  0  0  0  0  0  0  0  0
   -7.3322    1.6722    1.2141 H   0  0  0  0  0  0  0  0  0  0  0  0
   -4.9007    1.4612    1.1136 H   0  0  0  0  0  0  0  0  0  0  0  0
   -3.2132   -0.6574    0.2570 H   0  0  0  0  0  0  0  0  0  0  0  0
   -4.6792   -4.3684   -1.8745 H   0  0  0  0  0  0  0  0  0  0  0  0
   -6.2304   -3.5238   -1.6353 H   0  0  0  0  0  0  0  0  0  0  0  0
   -6.6159   -6.2257   -1.1876 H   0  0  0  0  0  0  0  0  0  0  0  0
   -7.1200   -7.6940    0.7608 H   0  0  0  0  0  0  0  0  0  0  0  0
   -6.4641   -7.0540    2.9872 H   0  0  0  0  0  0  0  0  0  0  0  0
   -5.2749   -4.9383    3.3963 H   0  0  0  0  0  0  0  0  0  0  0  0
   -4.7705   -3.4835    1.5087 H   0  0  0  0  0  0  0  0  0  0  0  0
    3.5786    0.7977   -0.7531 H   0  0  0  0  0  0  0  0  0  0  0  0
    2.4913    0.2816    1.9892 H   0  0  0  0  0  0  0  0  0  0  0  0
    3.5173   -1.5437    0.5405 H   0  0  0  0  0  0  0  0  0  0  0  0
    5.0087   -0.6201    0.4238 H   0  0  0  0  0  0  0  0  0  0  0  0
    5.3318   -2.4643    1.8309 H   0  0  0  0  0  0  0  0  0  0  0  0
    4.0548   -2.0487    2.9847 H   0  0  0  0  0  0  0  0  0  0  0  0
    5.3976   -0.0456    3.7133 H   0  0  0  0  0  0  0  0  0  0  0  0
    6.6557   -0.5231    2.4654 H   0  0  0  0  0  0  0  0  0  0  0  0
    6.1101   -1.7352    5.0707 H   0  0  0  0  0  0  0  0  0  0  0  0
    6.6861   -4.7329    2.4141 H   0  0  0  0  0  0  0  0  0  0  0  0
    5.8287   -4.6373    3.9735 H   0  0  0  0  0  0  0  0  0  0  0  0
    8.8468   -2.0080    3.6424 H   0  0  0  0  0  0  0  0  0  0  0  0
    4.5478    1.7399    2.7931 H   0  0  0  0  0  0  0  0  0  0  0  0
  1  2  1  0
  2  3  1  0
  2  4  2  3
  4  5  1  0
  5  6  1  0
  6  7  1  0
  7  8  1  0
  8  9  1  0
  9 10  1  0
 10 11  2  0
 10 12  1  0
 12 13  1  0
 13 14  1  0
 14 15  2  0
 15 16  1  0
 16 17  2  0
 17 18  1  0
 18 19  2  0
 12 20  1  0
 20 21  1  0
 21 22  2  0
 21 23  1  0
 23 24  1  0
 24 25  1  0
 25 26  2  0
 26 27  1  0
 27 28  2  0
 28 29  1  0
 29 30  2  0
  8 31  1  0
 31 32  2  0
 31 33  1  0
 33 34  1  0
 34 35  1  0
 35 36  1  0
 36 37  1  0
 37 38  1  0
 38 39  1  0
 39 40  1  0
 39 41  2  3
 34 42  1  0
 42 43  2  0
 19 14  1  0
 30 25  1  0
  1 44  1  0
  1 45  1  0
  3 46  1  0
  3 47  1  0
  5 48  1  0
  5 49  1  0
  6 50  1  0
  6 51  1  0
  7 52  1  0
  7 53  1  0
  8 54  1  6
  9 55  1  0
 12 56  1  6
 13 57  1  0
 13 58  1  0
 15 59  1  0
 16 60  1  0
 17 61  1  0
 18 62  1  0
 19 63  1  0
 20 64  1  0
 24 65  1  0
 24 66  1  0
 26 67  1  0
 27 68  1  0
 28 69  1  0
 29 70  1  0
 30 71  1  0
 33 72  1  0
 34 73  1  1
 35 74  1  0
 35 75  1  0
 36 76  1  0
 36 77  1  0
 37 78  1  0
 37 79  1  0
 38 80  1  0
 40 81  1  0
 40 82  1  0
 41 83  1  0
 42 84  1  0
M  END
$$$$
[H]c1c([H])c([H])c(C([H])([H])OC(=O)N([H])[C@]([H])(C(=O)N([H])[C@]([H])(C(=O)c2nc3c([H])c([H])c([H])c([H])c3s2)C([H])([H])C([H])([H])C([H])([H])N=C(N([H])[H])N([H])[H])C([H])([H])c2c([H])c([H])c([H])c([H])c2[H])c([H])c1[H]
     RDKit          3D

 73 76  0  0  0  0  0  0  0  0999 V2000
   -8.1124    2.8390    2.3680 N   0  0  0  0  0  0  0  0  0  0  0  0
   -6.9566    3.3064    1.6704 C   0  0  0  0  0  0  0  0  0  0  0  0
   -6.7394    4.6887    1.4293 N   0  0  0  0  0  0  0  0  0  0  0  0
   -6.1003    2.4584    1.2550 N   0  0  0  0  0  0  0  0  0  0  0  0
   -4.9023    2.8422    0.5407 C   0  0  0  0  0  0  0  0  0  0  0  0
   -4.0637    1.5801    0.3875 C   0  0  0  0  0  0  0  0  0  0  0  0
   -2.8007    1.9092   -0.3483 C   0  0  0  0  0  0  0  0  0  0  0  0
   -1.9524    0.6581   -0.4935 C   0  0  2  0  0  0  0  0  0  0  0  0
   -0.7247    1.0187   -1.2246 N   0  0  0  0  0  0  0  0  0  0  0  0
    0.5363    0.8670   -0.5930 C   0  0  0  0  0  0  0  0  0  0  0  0
    0.6088    0.4295    0.5849 O   0  0  0  0  0  0  0  0  0  0  0  0
    1.7497    1.2541   -1.4013 C   0  0  2  0  0  0  0  0  0  0  0  0
    1.7039    0.5346   -2.6782 C   0  0  0  0  0  0  0  0  0  0  0  0
    2.7762    0.7520   -3.6444 C   0  0  0  0  0  0  0  0  0  0  0  0
    2.7037    1.7956   -4.5524 C   0  0  0  0  0  0  0  0  0  0  0  0
    3.7303    1.9509   -5.4459 C   0  0  0  0  0  0  0  0  0  0  0  0
    4.8258    1.0823   -5.4467 C   0  0  0  0  0  0  0  0  0  0  0  0
    4.9023    0.0445   -4.5473 C   0  0  0  0  0  0  0  0  0  0  0  0
    3.8520   -0.1062   -3.6410 C   0  0  0  0  0  0  0  0  0  0  0  0
    2.8986    1.0018   -0.5624 N   0  0  0  0  0  0  0  0  0  0  0  0
    3.2958   -0.2380   -0.0435 C   0  0  0  0  0  0  0  0  0  0  0  0
    2.6476   -1.2786   -0.2912 O   0  0  0  0  0  0  0  0  0  0  0  0
    4.4158   -0.3426    0.7567 O   0  0  0  0  0  0  0  0  0  0  0  0
    4.7858   -1.6127    1.2628 C   0  0  0  0  0  0  0  0  0  0  0  0
    6.0156   -1.4905    2.0954 C   0  0  0  0  0  0  0  0  0  0  0  0
    5.9195   -1.2382    3.4607 C   0  0  0  0  0  0  0  0  0  0  0  0
    7.0513   -1.1266    4.2224 C   0  0  0  0  0  0  0  0  0  0  0  0
    8.2857   -1.2657    3.6289 C   0  0  0  0  0  0  0  0  0  0  0  0
    8.3793   -1.5123    2.2953 C   0  0  0  0  0  0  0  0  0  0  0  0
    7.2456   -1.6279    1.5110 C   0  0  0  0  0  0  0  0  0  0  0  0
   -2.6160   -0.4007   -1.2528 C   0  0  0  0  0  0  0  0  0  0  0  0
   -2.6275   -0.4029   -2.5027 O   0  0  0  0  0  0  0  0  0  0  0  0
   -3.2828   -1.4905   -0.5453 C   0  0  0  0  0  0  0  0  0  0  0  0
   -3.3882   -1.7178    0.7463 N   0  0  0  0  0  0  0  0  0  0  0  0
   -4.0316   -2.7585    1.1907 C   0  0  0  0  0  0  0  0  0  0  0  0
   -4.2112   -3.1062    2.5421 C   0  0  0  0  0  0  0  0  0  0  0  0
   -4.9018   -4.2169    2.8902 C   0  0  0  0  0  0  0  0  0  0  0  0
   -5.4654   -5.0676    1.9724 C   0  0  0  0  0  0  0  0  0  0  0  0
   -5.3029   -4.7482    0.6452 C   0  0  0  0  0  0  0  0  0  0  0  0
   -4.5891   -3.5990    0.2659 C   0  0  0  0  0  0  0  0  0  0  0  0
   -4.1522   -2.8380   -1.1988 S   0  0  0  0  0  0  0  0  0  0  0  0
   -8.0577    2.0693    3.0543 H   0  0  0  0  0  0  0  0  0  0  0  0
   -9.0453    3.2784    2.1892 H   0  0  0  0  0  0  0  0  0  0  0  0
   -6.9503    5.0688    0.4921 H   0  0  0  0  0  0  0  0  0  0  0  0
   -6.3792    5.3051    2.1695 H   0  0  0  0  0  0  0  0  0  0  0  0
   -4.3590    3.5693    1.1801 H   0  0  0  0  0  0  0  0  0  0  0  0
   -5.1374    3.3179   -0.4120 H   0  0  0  0  0  0  0  0  0  0  0  0
   -4.6556    0.8253   -0.1834 H   0  0  0  0  0  0  0  0  0  0  0  0
   -3.8165    1.2047    1.3827 H   0  0  0  0  0  0  0  0  0  0  0  0
   -2.2153    2.6038    0.3013 H   0  0  0  0  0  0  0  0  0  0  0  0
   -2.9879    2.3458   -1.3534 H   0  0  0  0  0  0  0  0  0  0  0  0
   -1.7026    0.2975    0.5118 H   0  0  0  0  0  0  0  0  0  0  0  0
   -0.8151    1.3782   -2.1810 H   0  0  0  0  0  0  0  0  0  0  0  0
    1.6394    2.3634   -1.4800 H   0  0  0  0  0  0  0  0  0  0  0  0
    1.6852   -0.5706   -2.4410 H   0  0  0  0  0  0  0  0  0  0  0  0
    0.7408    0.6877   -3.2246 H   0  0  0  0  0  0  0  0  0  0  0  0
    1.8307    2.4236   -4.4926 H   0  0  0  0  0  0  0  0  0  0  0  0
    3.6538    2.7762   -6.1499 H   0  0  0  0  0  0  0  0  0  0  0  0
    5.6189    1.2321   -6.1642 H   0  0  0  0  0  0  0  0  0  0  0  0
    5.7573   -0.6098   -4.5698 H   0  0  0  0  0  0  0  0  0  0  0  0
    3.9796   -0.9479   -2.9718 H   0  0  0  0  0  0  0  0  0  0  0  0
    3.5302    1.8294   -0.2944 H   0  0  0  0  0  0  0  0  0  0  0  0
    4.0085   -2.0661    1.8836 H   0  0  0  0  0  0  0  0  0  0  0  0
    4.9975   -2.3007    0.4024 H   0  0  0  0  0  0  0  0  0  0  0  0
    4.9256   -1.1336    3.8974 H   0  0  0  0  0  0  0  0  0  0  0  0
    7.0054   -0.9320    5.2788 H   0  0  0  0  0  0  0  0  0  0  0  0
    9.1939   -1.1830    4.2023 H   0  0  0  0  0  0  0  0  0  0  0  0
    9.3380   -1.6305    1.7791 H   0  0  0  0  0  0  0  0  0  0  0  0
    7.3224   -1.8246    0.4472 H   0  0  0  0  0  0  0  0  0  0  0  0
   -3.7946   -2.4831    3.3451 H   0  0  0  0  0  0  0  0  0  0  0  0
   -5.0229   -4.4588    3.9648 H   0  0  0  0  0  0  0  0  0  0  0  0
   -5.9991   -5.9285    2.2915 H   0  0  0  0  0  0  0  0  0  0  0  0
   -5.6968   -5.3349   -0.1637 H   0  0  0  0  0  0  0  0  0  0  0  0
  1  2  1  0
  2  3  1  0
  2  4  2  3
  4  5  1  0
  5  6  1  0
  6  7  1  0
  7  8  1  0
  8  9  1  0
  9 10  1  0
 10 11  2  0
 10 12  1  0
 12 13  1  0
 13 14  1  0
 14 15  2  0
 15 16  1  0
 16 17  2  0
 17 18  1  0
 18 19  2  0
 12 20  1  0
 20 21  1  0
 21 22  2  0
 21 23  1  0
 23 24  1  0
 24 25  1  0
 25 26  2  0
 26 27  1  0
 27 28  2  0
 28 29  1  0
 29 30  2  0
  8 31  1  0
 31 32  2  0
 31 33  1  0
 33 34  2  0
 34 35  1  0
 35 36  2  0
 36 37  1  0
 37 38  2  0
 38 39  1  0
 39 40  2  0
 40 41  1  0
 19 14  1  0
 30 25  1  0
 41 33  1  0
 40 35  1  0
  1 42  1  0
  1 43  1  0
  3 44  1  0
  3 45  1  0
  5 46  1  0
  5 47  1  0
  6 48  1  0
  6 49  1  0
  7 50  1  0
  7 51  1  0
  8 52  1  1
  9 53  1  0
 12 54  1  6
 13 55  1  0
 13 56  1  0
 15 57  1  0
 16 58  1  0
 17 59  1  0
 18 60  1  0
 19 61  1  0
 20 62  1  0
 24 63  1  0
 24 64  1  0
 26 65  1  0
 27 66  1  0
 28 67  1  0
 29 68  1  0
 30 69  1  0
 36 70  1  0
 37 71  1  0
 38 72  1  0
 39 73  1  0
M  END
$$$$
[H]OC1(C(F)(F)F)c2c([H])c([H])c([H])c([H])c2-c2c(-c3c([H])nn(C([H])(C([H])([H])[H])C([H])([H])[H])c3[H])c([H])c(OC([H])([H])[H])c([H])c21
     RDKit          3D

 47 50  0  0  0  0  0  0  0  0999 V2000
   -2.8358    4.7324   -0.7398 C   0  0  0  0  0  0  0  0  0  0  0  0
   -1.5328    4.1812   -0.9184 O   0  0  0  0  0  0  0  0  0  0  0  0
   -1.3667    2.8075   -0.6398 C   0  0  0  0  0  0  0  0  0  0  0  0
   -2.4155    2.0349   -0.2148 C   0  0  0  0  0  0  0  0  0  0  0  0
   -2.3275    0.6791    0.0766 C   0  0  0  0  0  0  0  0  0  0  0  0
   -1.0674    0.0761   -0.0807 C   0  0  0  0  0  0  0  0  0  0  0  0
   -1.1900   -1.3640    0.2636 C   0  0  0  0  0  0  0  0  0  0  0  0
   -0.2873   -2.4036    0.2684 C   0  0  0  0  0  0  0  0  0  0  0  0
   -0.6996   -3.6614    0.6298 C   0  0  0  0  0  0  0  0  0  0  0  0
   -2.0060   -3.8936    0.9867 C   0  0  0  0  0  0  0  0  0  0  0  0
   -2.9029   -2.8570    0.9803 C   0  0  0  0  0  0  0  0  0  0  0  0
   -2.5129   -1.5776    0.6198 C   0  0  0  0  0  0  0  0  0  0  0  0
   -3.2833   -0.3264    0.5301 C   0  0  0  0  0  0  0  0  0  0  0  0
   -3.7658   -0.0484    1.8077 O   0  0  0  0  0  0  0  0  0  0  0  0
   -4.4364   -0.4136   -0.4108 C   0  0  0  0  0  0  0  0  0  0  0  0
   -5.0694    0.8058   -0.4664 F   0  0  0  0  0  0  0  0  0  0  0  0
   -5.3807   -1.3436   -0.0255 F   0  0  0  0  0  0  0  0  0  0  0  0
   -4.0319   -0.7234   -1.6985 F   0  0  0  0  0  0  0  0  0  0  0  0
    0.0053    0.8147   -0.5012 C   0  0  0  0  0  0  0  0  0  0  0  0
   -0.1605    2.1889   -0.7802 C   0  0  0  0  0  0  0  0  0  0  0  0
    1.3452    0.2669   -0.6237 C   0  0  0  0  0  0  0  0  0  0  0  0
    1.9397   -0.1384   -1.8233 C   0  0  0  0  0  0  0  0  0  0  0  0
    3.1863   -0.5230   -1.5967 N   0  0  0  0  0  0  0  0  0  0  0  0
    3.4256   -0.3849   -0.3041 N   0  0  0  0  0  0  0  0  0  0  0  0
    2.3395    0.0909    0.3273 C   0  0  0  0  0  0  0  0  0  0  0  0
    4.7206   -0.7256    0.2778 C   0  0  0  0  0  0  0  0  0  0  0  0
    5.0235    0.1274    1.4947 C   0  0  0  0  0  0  0  0  0  0  0  0
    5.8120   -0.5903   -0.7563 C   0  0  0  0  0  0  0  0  0  0  0  0
   -3.5548    4.1159   -1.3438 H   0  0  0  0  0  0  0  0  0  0  0  0
   -3.1375    4.5795    0.3250 H   0  0  0  0  0  0  0  0  0  0  0  0
   -2.9013    5.7661   -1.0739 H   0  0  0  0  0  0  0  0  0  0  0  0
   -3.3779    2.5151   -0.0927 H   0  0  0  0  0  0  0  0  0  0  0  0
    0.7332   -2.3057   -0.0083 H   0  0  0  0  0  0  0  0  0  0  0  0
    0.0023   -4.5070    0.6419 H   0  0  0  0  0  0  0  0  0  0  0  0
   -2.3234   -4.9093    1.2751 H   0  0  0  0  0  0  0  0  0  0  0  0
   -3.9549   -3.0421    1.2671 H   0  0  0  0  0  0  0  0  0  0  0  0
   -4.6683   -0.4630    1.8836 H   0  0  0  0  0  0  0  0  0  0  0  0
    0.7075    2.7230   -1.1078 H   0  0  0  0  0  0  0  0  0  0  0  0
    1.4414   -0.1311   -2.7765 H   0  0  0  0  0  0  0  0  0  0  0  0
    2.2181    0.3095    1.3730 H   0  0  0  0  0  0  0  0  0  0  0  0
    4.7221   -1.7882    0.6059 H   0  0  0  0  0  0  0  0  0  0  0  0
    5.0052   -0.4788    2.4234 H   0  0  0  0  0  0  0  0  0  0  0  0
    4.2562    0.9173    1.5619 H   0  0  0  0  0  0  0  0  0  0  0  0
    6.0451    0.5658    1.3816 H   0  0  0  0  0  0  0  0  0  0  0  0
    6.0975   -1.5568   -1.2161 H   0  0  0  0  0  0  0  0  0  0  0  0
    6.7137   -0.2017   -0.2373 H   0  0  0  0  0  0  0  0  0  0  0  0
    5.4506    0.0605   -1.5646 H   0  0  0  0  0  0  0  0  0  0  0  0
  1  2  1  0
  2  3  1  0
  3  4  2  0
  4  5  1  0
  5  6  2  0
  6  7  1  0
  7  8  2  0
  8  9  1  0
  9 10  2  0
 10 11  1  0
 11 12  2  0
 12 13  1  0
 13 14  1  0
 13 15  1  0
 15 16  1  0
 15 17  1  0
 15 18  1  0
  6 19  1  0
 19 20  2  0
 19 21  1  0
 21 22  1  0
 22 23  2  0
 23 24  1  0
 24 25  1  0
 24 26  1  0
 26 27  1  0
 26 28  1  0
 20  3  1  0
 25 21  2  0
 13  5  1  0
 12  7  1  0
  1 29  1  0
  1 30  1  0
  1 31  1  0
  4 32  1  0
  8 33  1  0
  9 34  1  0
 10 35  1  0
 11 36  1  0
 14 37  1  0
 20 38  1  0
 22 39  1  0
 25 40  1  0
 26 41  1  0
 27 42  1  0
 27 43  1  0
 27 44  1  0
 28 45  1  0
 28 46  1  0
 28 47  1  0
M  END
$$$$
[H]c1nc([H])c(N2C(=O)N(c3c([H])c([H])c(Cl)c([H])c3[H])C([H])([H])C2([H])[H])c(C2([H])C([H])([H])C2([H])[H])c1[H]
     RDKit          3D

 38 41  0  0  0  0  0  0  0  0999 V2000
    7.5316    0.7476   -0.5191 Cl  0  0  0  0  0  0  0  0  0  0  0  0
    5.8462    0.2283   -0.4800 C   0  0  0  0  0  0  0  0  0  0  0  0
    5.5017   -1.1246   -0.4310 C   0  0  0  0  0  0  0  0  0  0  0  0
    4.1641   -1.5085   -0.3925 C   0  0  0  0  0  0  0  0  0  0  0  0
    3.1906   -0.5625   -0.4033 C   0  0  0  0  0  0  0  0  0  0  0  0
    3.5708    0.7847   -0.4540 C   0  0  0  0  0  0  0  0  0  0  0  0
    4.8694    1.1907   -0.4915 C   0  0  0  0  0  0  0  0  0  0  0  0
    1.7853   -0.8140   -0.3820 N   0  0  0  0  0  0  0  0  0  0  0  0
    1.0374   -1.2789   -1.5147 C   0  0  0  0  0  0  0  0  0  0  0  0
   -0.4221   -1.1272   -1.1280 C   0  0  0  0  0  0  0  0  0  0  0  0
   -0.4714   -0.3768    0.0938 N   0  0  0  0  0  0  0  0  0  0  0  0
    0.8350   -0.6761    0.6818 C   0  0  0  0  0  0  0  0  0  0  0  0
    1.1222   -0.8002    1.8838 O   0  0  0  0  0  0  0  0  0  0  0  0
   -1.4086    0.4893    0.7063 C   0  0  0  0  0  0  0  0  0  0  0  0
   -0.9794    1.3779    1.7244 C   0  0  0  0  0  0  0  0  0  0  0  0
   -1.7906    2.2638    2.3050 N   0  0  0  0  0  0  0  0  0  0  0  0
   -3.0727    2.3890    1.9751 C   0  0  0  0  0  0  0  0  0  0  0  0
   -3.5461    1.5553    0.9969 C   0  0  0  0  0  0  0  0  0  0  0  0
   -2.7029    0.6046    0.3684 C   0  0  0  0  0  0  0  0  0  0  0  0
   -3.3814   -0.2979   -0.6198 C   0  0  0  0  0  0  0  0  0  0  0  0
   -4.6414    0.1528   -1.2813 C   0  0  0  0  0  0  0  0  0  0  0  0
   -4.8091   -0.7234   -0.1267 C   0  0  0  0  0  0  0  0  0  0  0  0
    6.2948   -1.8360   -0.4224 H   0  0  0  0  0  0  0  0  0  0  0  0
    3.8691   -2.5410   -0.3538 H   0  0  0  0  0  0  0  0  0  0  0  0
    2.8031    1.5503   -0.4700 H   0  0  0  0  0  0  0  0  0  0  0  0
    5.0815    2.2712   -0.5313 H   0  0  0  0  0  0  0  0  0  0  0  0
    1.2777   -2.3374   -1.7890 H   0  0  0  0  0  0  0  0  0  0  0  0
    1.2751   -0.6658   -2.4259 H   0  0  0  0  0  0  0  0  0  0  0  0
   -0.9084   -0.5742   -1.9417 H   0  0  0  0  0  0  0  0  0  0  0  0
   -0.7985   -2.1633   -1.0173 H   0  0  0  0  0  0  0  0  0  0  0  0
    0.0388    1.3516    2.0591 H   0  0  0  0  0  0  0  0  0  0  0  0
   -3.7361    3.1149    2.4546 H   0  0  0  0  0  0  0  0  0  0  0  0
   -4.5757    1.6229    0.7036 H   0  0  0  0  0  0  0  0  0  0  0  0
   -2.8974   -1.1998   -1.0125 H   0  0  0  0  0  0  0  0  0  0  0  0
   -4.8170    1.2561   -1.2701 H   0  0  0  0  0  0  0  0  0  0  0  0
   -4.8424   -0.2627   -2.2990 H   0  0  0  0  0  0  0  0  0  0  0  0
   -5.1358   -1.7554   -0.3116 H   0  0  0  0  0  0  0  0  0  0  0  0
   -5.1573   -0.3253    0.8225 H   0  0  0  0  0  0  0  0  0  0  0  0
  1  2  1  0
  2  3  2  0
  3  4  1  0
  4  5  2  0
  5  6  1  0
  6  7  2  0
  5  8  1  0
  8  9  1  0
  9 10  1  0
 10 11  1  0
 11 12  1  0
 12 13  2  0
 11 14  1  0
 14 15  2  0
 15 16  1  0
 16 17  2  0
 17 18  1  0
 18 19  2  0
 19 20  1  0
 20 21  1  0
 21 22  1  0
  7  2  1  0
 12  8  1  0
 19 14  1  0
 22 20  1  0
  3 23  1  0
  4 24  1  0
  6 25  1  0
  7 26  1  0
  9 27  1  0
  9 28  1  0
 10 29  1  0
 10 30  1  0
 15 31  1  0
 17 32  1  0
 18 33  1  0
 20 34  1  0
 21 35  1  0
 21 36  1  0
 22 37  1  0
 22 38  1  0
M  END
$$$$
[H]N=C(N([H])[H])N([H])C([H])([H])C([H])([H])C([H])([H])[C@@]([H])(C(=O)N([H])[C@]([H])(C(=O)O[H])C([H])([H])c1c([H])c([H])c([H])c([H])c1[H])N([H])C(=O)[C@@]([H])(N([H])C(=O)[C@@]([H])(N([H])C(=O)[C@@]([H])(N([H])C(=O)[C@@]([H])(N([H])C(=O)C([H])([H])[H])C([H])([H])C([H])([H])C([H])([H])N([H])C(=N[H])N([H])[H])C([H])(C([H])([H])[H])C([H])([H])[H])C([H])([H])C([H])([H])C([H])([H])N([H])C(=N[H])N([H])[H])C([H])([H])C([H])([H])C([H])([H])N([H])C(=N[H])N([H])[H]
     RDKit          3D

136136  0  0  0  0  0  0  0  0999 V2000
   11.3584    1.1561    0.2552 C   0  0  0  0  0  0  0  0  0  0  0  0
    9.9201    1.3139    0.4978 C   0  0  0  0  0  0  0  0  0  0  0  0
    9.5435    1.9013    1.5547 O   0  0  0  0  0  0  0  0  0  0  0  0
    8.8910    0.8544   -0.3664 N   0  0  0  0  0  0  0  0  0  0  0  0
    7.4819    0.9998   -0.1370 C   0  0  1  0  0  0  0  0  0  0  0  0
    6.6990    1.1953   -1.3846 C   0  0  0  0  0  0  0  0  0  0  0  0
    6.8849    2.3673   -2.2458 C   0  0  0  0  0  0  0  0  0  0  0  0
    6.4990    3.7045   -1.7077 C   0  0  0  0  0  0  0  0  0  0  0  0
    7.2329    4.1486   -0.5979 N   0  0  0  0  0  0  0  0  0  0  0  0
    8.5864    4.5830   -0.7522 C   0  0  0  0  0  0  0  0  0  0  0  0
    9.2180    5.2194    0.3593 N   0  0  0  0  0  0  0  0  0  0  0  0
    9.2019    4.4061   -1.8449 N   0  0  0  0  0  0  0  0  0  0  0  0
    6.9777   -0.3558    0.3959 C   0  0  0  0  0  0  0  0  0  0  0  0
    7.8390   -1.2540    0.4525 O   0  0  0  0  0  0  0  0  0  0  0  0
    5.6191   -0.4663    0.7643 N   0  0  0  0  0  0  0  0  0  0  0  0
    4.9712   -1.6350    1.2723 C   0  0  1  0  0  0  0  0  0  0  0  0
    4.7043   -1.5736    2.7458 C   0  0  0  0  0  0  0  0  0  0  0  0
    6.0237   -1.4512    3.5055 C   0  0  0  0  0  0  0  0  0  0  0  0
    3.7567   -0.4748    3.1641 C   0  0  0  0  0  0  0  0  0  0  0  0
    3.7629   -1.9301    0.5086 C   0  0  0  0  0  0  0  0  0  0  0  0
    3.7806   -1.7789   -0.7696 O   0  0  0  0  0  0  0  0  0  0  0  0
    2.5267   -2.3732    1.0259 N   0  0  0  0  0  0  0  0  0  0  0  0
    1.3464   -2.6581    0.2388 C   0  0  1  0  0  0  0  0  0  0  0  0
    0.4691   -3.6604    0.8876 C   0  0  0  0  0  0  0  0  0  0  0  0
    1.1703   -4.9809    1.0953 C   0  0  0  0  0  0  0  0  0  0  0  0
    1.5707   -5.5408   -0.2534 C   0  0  0  0  0  0  0  0  0  0  0  0
    2.2507   -6.8342   -0.0599 N   0  0  0  0  0  0  0  0  0  0  0  0
    2.6805   -7.5506   -1.1986 C   0  0  0  0  0  0  0  0  0  0  0  0
    1.7586   -7.7443   -2.2847 N   0  0  0  0  0  0  0  0  0  0  0  0
    3.8522   -8.0358   -1.3051 N   0  0  0  0  0  0  0  0  0  0  0  0
    0.6434   -1.3673    0.0066 C   0  0  0  0  0  0  0  0  0  0  0  0
    1.1596   -0.3157    0.4445 O   0  0  0  0  0  0  0  0  0  0  0  0
   -0.6020   -1.2479   -0.6928 N   0  0  0  0  0  0  0  0  0  0  0  0
   -1.1778    0.0402   -0.8527 C   0  0  1  0  0  0  0  0  0  0  0  0
   -1.0057    0.7797   -2.0994 C   0  0  0  0  0  0  0  0  0  0  0  0
   -1.4379    0.4146   -3.4284 C   0  0  0  0  0  0  0  0  0  0  0  0
   -1.0049   -0.7370   -4.2022 C   0  0  0  0  0  0  0  0  0  0  0  0
   -1.3396   -2.0358   -3.7142 N   0  0  0  0  0  0  0  0  0  0  0  0
   -2.6644   -2.5360   -3.6777 C   0  0  0  0  0  0  0  0  0  0  0  0
   -3.6590   -1.9904   -4.5263 N   0  0  0  0  0  0  0  0  0  0  0  0
   -2.9811   -3.4808   -2.8850 N   0  0  0  0  0  0  0  0  0  0  0  0
   -2.5843    0.0859   -0.3197 C   0  0  0  0  0  0  0  0  0  0  0  0
   -3.1553   -1.0220   -0.1617 O   0  0  0  0  0  0  0  0  0  0  0  0
   -3.2368    1.2669   -0.0060 N   0  0  0  0  0  0  0  0  0  0  0  0
   -4.6353    1.2332    0.5261 C   0  0  1  0  0  0  0  0  0  0  0  0
   -4.6028    1.0486    2.0056 C   0  0  0  0  0  0  0  0  0  0  0  0
   -5.9538    0.8543    2.5862 C   0  0  0  0  0  0  0  0  0  0  0  0
   -5.8959    0.6564    4.1058 C   0  0  0  0  0  0  0  0  0  0  0  0
   -7.2863    0.4718    4.5201 N   0  0  0  0  0  0  0  0  0  0  0  0
   -8.0332   -0.6698    4.1666 C   0  0  0  0  0  0  0  0  0  0  0  0
   -7.7586   -1.9337    4.7569 N   0  0  0  0  0  0  0  0  0  0  0  0
   -8.9878   -0.6008    3.2914 N   0  0  0  0  0  0  0  0  0  0  0  0
   -5.3157    2.3866   -0.0413 C   0  0  0  0  0  0  0  0  0  0  0  0
   -5.1830    2.5347   -1.3183 O   0  0  0  0  0  0  0  0  0  0  0  0
   -6.0740    3.3439    0.6010 N   0  0  0  0  0  0  0  0  0  0  0  0
   -6.7176    4.4570   -0.1492 C   0  0  1  0  0  0  0  0  0  0  0  0
   -8.2101    4.3436   -0.0722 C   0  0  0  0  0  0  0  0  0  0  0  0
   -8.6964    3.0832   -0.6554 C   0  0  0  0  0  0  0  0  0  0  0  0
   -8.8751    1.8974    0.0009 C   0  0  0  0  0  0  0  0  0  0  0  0
   -9.3411    0.7490   -0.5977 C   0  0  0  0  0  0  0  0  0  0  0  0
   -9.6462    0.7949   -1.9394 C   0  0  0  0  0  0  0  0  0  0  0  0
   -9.4849    1.9726   -2.6562 C   0  0  0  0  0  0  0  0  0  0  0  0
   -9.0145    3.0981   -2.0118 C   0  0  0  0  0  0  0  0  0  0  0  0
   -6.2132    5.7547    0.3185 C   0  0  0  0  0  0  0  0  0  0  0  0
   -6.6755    6.9484   -0.2414 O   0  0  0  0  0  0  0  0  0  0  0  0
   -5.3572    5.8255    1.2296 O   0  0  0  0  0  0  0  0  0  0  0  0
   11.6915    0.2404    0.8376 H   0  0  0  0  0  0  0  0  0  0  0  0
   11.9444    2.0317    0.6466 H   0  0  0  0  0  0  0  0  0  0  0  0
   11.6143    0.9426   -0.7981 H   0  0  0  0  0  0  0  0  0  0  0  0
    9.2146    0.3706   -1.2334 H   0  0  0  0  0  0  0  0  0  0  0  0
    7.2792    1.7507    0.6701 H   0  0  0  0  0  0  0  0  0  0  0  0
    5.5897    1.0863   -1.1717 H   0  0  0  0  0  0  0  0  0  0  0  0
    6.9229    0.2657   -2.0244 H   0  0  0  0  0  0  0  0  0  0  0  0
    7.8740    2.4128   -2.7630 H   0  0  0  0  0  0  0  0  0  0  0  0
    6.1737    2.2087   -3.1391 H   0  0  0  0  0  0  0  0  0  0  0  0
    6.6331    4.5035   -2.5195 H   0  0  0  0  0  0  0  0  0  0  0  0
    5.3816    3.6890   -1.5263 H   0  0  0  0  0  0  0  0  0  0  0  0
    6.7918    4.1668    0.3633 H   0  0  0  0  0  0  0  0  0  0  0  0
   10.0060    5.8804    0.2183 H   0  0  0  0  0  0  0  0  0  0  0  0
    8.8721    5.0087    1.3161 H   0  0  0  0  0  0  0  0  0  0  0  0
   10.1839    4.7121   -1.9852 H   0  0  0  0  0  0  0  0  0  0  0  0
    5.0273    0.4192    0.6500 H   0  0  0  0  0  0  0  0  0  0  0  0
    5.6642   -2.5392    1.1507 H   0  0  0  0  0  0  0  0  0  0  0  0
    4.2513   -2.5332    3.0570 H   0  0  0  0  0  0  0  0  0  0  0  0
    5.8911   -1.6479    4.5927 H   0  0  0  0  0  0  0  0  0  0  0  0
    6.4976   -0.4656    3.4017 H   0  0  0  0  0  0  0  0  0  0  0  0
    6.6548   -2.3069    3.1485 H   0  0  0  0  0  0  0  0  0  0  0  0
    4.2435    0.3025    3.7983 H   0  0  0  0  0  0  0  0  0  0  0  0
    2.9282   -0.8675    3.8147 H   0  0  0  0  0  0  0  0  0  0  0  0
    3.2742   -0.0369    2.2751 H   0  0  0  0  0  0  0  0  0  0  0  0
    2.4632   -2.5112    2.0717 H   0  0  0  0  0  0  0  0  0  0  0  0
    1.6048   -2.9991   -0.8062 H   0  0  0  0  0  0  0  0  0  0  0  0
    0.1582   -3.2961    1.9010 H   0  0  0  0  0  0  0  0  0  0  0  0
   -0.4308   -3.8894    0.2691 H   0  0  0  0  0  0  0  0  0  0  0  0
    2.0446   -4.7977    1.7431 H   0  0  0  0  0  0  0  0  0  0  0  0
    0.4726   -5.7450    1.5365 H   0  0  0  0  0  0  0  0  0  0  0  0
    0.6613   -5.7081   -0.8798 H   0  0  0  0  0  0  0  0  0  0  0  0
    2.2692   -4.9063   -0.8169 H   0  0  0  0  0  0  0  0  0  0  0  0
    2.3968   -7.1868    0.9129 H   0  0  0  0  0  0  0  0  0  0  0  0
    1.5969   -6.9434   -2.9158 H   0  0  0  0  0  0  0  0  0  0  0  0
    1.2585   -8.6335   -2.4551 H   0  0  0  0  0  0  0  0  0  0  0  0
    4.6046   -7.9659   -0.5952 H   0  0  0  0  0  0  0  0  0  0  0  0
   -1.0502   -2.1045   -1.0133 H   0  0  0  0  0  0  0  0  0  0  0  0
   -0.6304    0.7213   -0.0656 H   0  0  0  0  0  0  0  0  0  0  0  0
    0.1469    0.9438   -2.1872 H   0  0  0  0  0  0  0  0  0  0  0  0
   -1.3043    1.8784   -1.8646 H   0  0  0  0  0  0  0  0  0  0  0  0
   -2.5938    0.4062   -3.4871 H   0  0  0  0  0  0  0  0  0  0  0  0
   -1.2375    1.3429   -4.1035 H   0  0  0  0  0  0  0  0  0  0  0  0
    0.1033   -0.7435   -4.4352 H   0  0  0  0  0  0  0  0  0  0  0  0
   -1.4779   -0.6933   -5.2467 H   0  0  0  0  0  0  0  0  0  0  0  0
   -0.5936   -2.7036   -3.3518 H   0  0  0  0  0  0  0  0  0  0  0  0
   -4.5405   -1.6496   -4.1372 H   0  0  0  0  0  0  0  0  0  0  0  0
   -3.4630   -1.9476   -5.5463 H   0  0  0  0  0  0  0  0  0  0  0  0
   -2.2535   -3.8849   -2.2601 H   0  0  0  0  0  0  0  0  0  0  0  0
   -2.8152    2.1905   -0.1160 H   0  0  0  0  0  0  0  0  0  0  0  0
   -5.0186    0.2294    0.1372 H   0  0  0  0  0  0  0  0  0  0  0  0
   -4.0410    0.0837    2.1765 H   0  0  0  0  0  0  0  0  0  0  0  0
   -4.0556    1.8795    2.5249 H   0  0  0  0  0  0  0  0  0  0  0  0
   -6.7360    1.5692    2.4124 H   0  0  0  0  0  0  0  0  0  0  0  0
   -6.3868   -0.1456    2.2285 H   0  0  0  0  0  0  0  0  0  0  0  0
   -5.4633    1.5409    4.5710 H   0  0  0  0  0  0  0  0  0  0  0  0
   -5.3582   -0.2806    4.2829 H   0  0  0  0  0  0  0  0  0  0  0  0
   -7.7267    1.2237    5.1026 H   0  0  0  0  0  0  0  0  0  0  0  0
   -8.2558   -2.2595    5.6057 H   0  0  0  0  0  0  0  0  0  0  0  0
   -7.0172   -2.5234    4.2791 H   0  0  0  0  0  0  0  0  0  0  0  0
   -9.1821    0.3224    2.8620 H   0  0  0  0  0  0  0  0  0  0  0  0
   -6.1882    3.3574    1.6337 H   0  0  0  0  0  0  0  0  0  0  0  0
   -6.4411    4.3338   -1.2139 H   0  0  0  0  0  0  0  0  0  0  0  0
   -8.5827    4.4181    0.9807 H   0  0  0  0  0  0  0  0  0  0  0  0
   -8.6572    5.2094   -0.5900 H   0  0  0  0  0  0  0  0  0  0  0  0
   -8.6409    1.8643    1.0462 H   0  0  0  0  0  0  0  0  0  0  0  0
   -9.4655   -0.1692   -0.0317 H   0  0  0  0  0  0  0  0  0  0  0  0
  -10.0187   -0.0817   -2.4549 H   0  0  0  0  0  0  0  0  0  0  0  0
   -9.7222    2.0077   -3.6996 H   0  0  0  0  0  0  0  0  0  0  0  0
   -8.9086    3.9880   -2.6070 H   0  0  0  0  0  0  0  0  0  0  0  0
   -7.7022    7.0090   -0.3033 H   0  0  0  0  0  0  0  0  0  0  0  0
  1  2  1  0
  2  3  2  0
  2  4  1  0
  4  5  1  0
  5  6  1  0
  6  7  1  0
  7  8  1  0
  8  9  1  0
  9 10  1  0
 10 11  1  0
 10 12  2  3
  5 13  1  0
 13 14  2  0
 13 15  1  0
 15 16  1  0
 16 17  1  0
 17 18  1  0
 17 19  1  0
 16 20  1  0
 20 21  2  0
 20 22  1  0
 22 23  1  0
 23 24  1  0
 24 25  1  0
 25 26  1  0
 26 27  1  0
 27 28  1  0
 28 29  1  0
 28 30  2  3
 23 31  1  0
 31 32  2  0
 31 33  1  0
 33 34  1  0
 34 35  1  0
 35 36  1  0
 36 37  1  0
 37 38  1  0
 38 39  1  0
 39 40  1  0
 39 41  2  3
 34 42  1  0
 42 43  2  0
 42 44  1  0
 44 45  1  0
 45 46  1  0
 46 47  1  0
 47 48  1  0
 48 49  1  0
 49 50  1  0
 50 51  1  0
 50 52  2  3
 45 53  1  0
 53 54  2  0
 53 55  1  0
 55 56  1  0
 56 57  1  0
 57 58  1  0
 58 59  2  0
 59 60  1  0
 60 61  2  0
 61 62  1  0
 62 63  2  0
 56 64  1  0
 64 65  1  0
 64 66  2  0
 63 58  1  0
  1 67  1  0
  1 68  1  0
  1 69  1  0
  4 70  1  0
  5 71  1  1
  6 72  1  0
  6 73  1  0
  7 74  1  0
  7 75  1  0
  8 76  1  0
  8 77  1  0
  9 78  1  0
 11 79  1  0
 11 80  1  0
 12 81  1  0
 15 82  1  0
 16 83  1  1
 17 84  1  0
 18 85  1  0
 18 86  1  0
 18 87  1  0
 19 88  1  0
 19 89  1  0
 19 90  1  0
 22 91  1  0
 23 92  1  6
 24 93  1  0
 24 94  1  0
 25 95  1  0
 25 96  1  0
 26 97  1  0
 26 98  1  0
 27 99  1  0
 29100  1  0
 29101  1  0
 30102  1  0
 33103  1  0
 34104  1  1
 35105  1  0
 35106  1  0
 36107  1  0
 36108  1  0
 37109  1  0
 37110  1  0
 38111  1  0
 40112  1  0
 40113  1  0
 41114  1  0
 44115  1  0
 45116  1  6
 46117  1  0
 46118  1  0
 47119  1  0
 47120  1  0
 48121  1  0
 48122  1  0
 49123  1  0
 51124  1  0
 51125  1  0
 52126  1  0
 55127  1  0
 56128  1  6
 57129  1  0
 57130  1  0
 59131  1  0
 60132  1  0
 61133  1  0
 62134  1  0
 63135  1  0
 65136  1  0
M  END
$$$$
[H]OC(=O)[C@@]([H])(N([H])C(=O)[C@@]([H])(N([H])C(=O)[C@@]([H])(N([H])C(=O)C([H])([H])N([H])C(=O)[C@@]1([H])N(C(=O)[C@@]([H])(N([H])[H])C([H])([H])c2c([H])n([H])c3c([H])c([H])c([H])c([H])c23)C([H])([H])C([H])([H])C1([H])[H])C([H])([H])c1c([H])n([H])c2c([H])c([H])c([H])c([H])c12)C([H])([H])C([H])(C([H])([H])[H])C([H])([H])[H])C([H])([H])c1c([H])c([H])c([H])c([H])c1[H]
     RDKit          3D

111116  0  0  0  0  0  0  0  0999 V2000
   -2.4356    3.5887    1.6372 C   0  0  0  0  0  0  0  0  0  0  0  0
   -3.0298    3.3618    0.2602 C   0  0  0  0  0  0  0  0  0  0  0  0
   -3.5090    4.7161   -0.2725 C   0  0  0  0  0  0  0  0  0  0  0  0
   -4.2317    2.4743    0.3057 C   0  0  0  0  0  0  0  0  0  0  0  0
   -3.9818    1.0580    0.7967 C   0  0  2  0  0  0  0  0  0  0  0  0
   -3.1140    0.2911   -0.0310 N   0  0  0  0  0  0  0  0  0  0  0  0
   -1.7561    0.0117    0.0314 C   0  0  0  0  0  0  0  0  0  0  0  0
   -1.0093    0.4696    0.9104 O   0  0  0  0  0  0  0  0  0  0  0  0
   -1.1193   -0.8753   -0.9761 C   0  0  2  0  0  0  0  0  0  0  0  0
   -0.8959   -2.1818   -0.1885 C   0  0  0  0  0  0  0  0  0  0  0  0
   -0.2268   -3.2289   -0.9785 C   0  0  0  0  0  0  0  0  0  0  0  0
    1.1293   -3.5427   -0.8180 C   0  0  0  0  0  0  0  0  0  0  0  0
    1.4623   -4.5290   -1.6621 N   0  0  0  0  0  0  0  0  0  0  0  0
    0.3820   -4.8880   -2.3793 C   0  0  0  0  0  0  0  0  0  0  0  0
    0.1863   -5.8354   -3.3546 C   0  0  0  0  0  0  0  0  0  0  0  0
   -1.0580   -5.9809   -3.9103 C   0  0  0  0  0  0  0  0  0  0  0  0
   -2.0822   -5.1806   -3.4840 C   0  0  0  0  0  0  0  0  0  0  0  0
   -1.9129   -4.2220   -2.5062 C   0  0  0  0  0  0  0  0  0  0  0  0
   -0.6790   -4.0768   -1.9551 C   0  0  0  0  0  0  0  0  0  0  0  0
    0.1485   -0.3876   -1.4551 N   0  0  0  0  0  0  0  0  0  0  0  0
    0.4405   -0.3945   -2.8309 C   0  0  0  0  0  0  0  0  0  0  0  0
   -0.4935   -0.8492   -3.6044 O   0  0  0  0  0  0  0  0  0  0  0  0
    1.6356    0.0282   -3.5137 C   0  0  0  0  0  0  0  0  0  0  0  0
    2.7058    0.5730   -2.7025 N   0  0  0  0  0  0  0  0  0  0  0  0
    3.8685    0.9511   -3.4002 C   0  0  0  0  0  0  0  0  0  0  0  0
    3.8044    0.7701   -4.6920 O   0  0  0  0  0  0  0  0  0  0  0  0
    5.0703    1.4975   -2.8634 C   0  0  2  0  0  0  0  0  0  0  0  0
    6.2383    1.4678   -3.8591 C   0  0  0  0  0  0  0  0  0  0  0  0
    7.3426    2.0392   -2.9824 C   0  0  0  0  0  0  0  0  0  0  0  0
    6.8069    2.0338   -1.5551 C   0  0  0  0  0  0  0  0  0  0  0  0
    5.7130    1.0238   -1.6943 N   0  0  0  0  0  0  0  0  0  0  0  0
    5.5689   -0.0389   -0.7979 C   0  0  0  0  0  0  0  0  0  0  0  0
    4.6566   -0.9056   -1.0247 O   0  0  0  0  0  0  0  0  0  0  0  0
    6.3672   -0.2863    0.4282 C   0  0  1  0  0  0  0  0  0  0  0  0
    7.7747   -0.3670    0.2158 N   0  0  0  0  0  0  0  0  0  0  0  0
    6.0251    0.7637    1.4780 C   0  0  0  0  0  0  0  0  0  0  0  0
    6.7765    0.6559    2.7373 C   0  0  0  0  0  0  0  0  0  0  0  0
    6.3269    0.0230    3.9066 C   0  0  0  0  0  0  0  0  0  0  0  0
    7.2767    0.0866    4.8600 N   0  0  0  0  0  0  0  0  0  0  0  0
    8.3531    0.7401    4.3753 C   0  0  0  0  0  0  0  0  0  0  0  0
    9.5673    1.0796    4.9053 C   0  0  0  0  0  0  0  0  0  0  0  0
   10.4881    1.7655    4.1632 C   0  0  0  0  0  0  0  0  0  0  0  0
   10.2086    2.1392    2.8395 C   0  0  0  0  0  0  0  0  0  0  0  0
    8.9725    1.7883    2.3144 C   0  0  0  0  0  0  0  0  0  0  0  0
    8.0524    1.0914    3.0767 C   0  0  0  0  0  0  0  0  0  0  0  0
   -5.3338    0.4163    0.7427 C   0  0  0  0  0  0  0  0  0  0  0  0
   -5.5716   -0.6032    0.0304 O   0  0  0  0  0  0  0  0  0  0  0  0
   -6.4070    0.9741    1.5137 N   0  0  0  0  0  0  0  0  0  0  0  0
   -7.7467    0.3782    1.4127 C   0  0  1  0  0  0  0  0  0  0  0  0
   -8.1441   -0.3402    2.6522 C   0  0  0  0  0  0  0  0  0  0  0  0
   -9.4940   -0.9321    2.5108 C   0  0  0  0  0  0  0  0  0  0  0  0
   -9.6089   -2.1510    1.8445 C   0  0  0  0  0  0  0  0  0  0  0  0
  -10.8235   -2.7804    1.6782 C   0  0  0  0  0  0  0  0  0  0  0  0
  -11.9844   -2.1904    2.1874 C   0  0  0  0  0  0  0  0  0  0  0  0
  -11.8621   -0.9994    2.8389 C   0  0  0  0  0  0  0  0  0  0  0  0
  -10.6484   -0.3827    2.9986 C   0  0  0  0  0  0  0  0  0  0  0  0
   -8.6500    1.4506    1.0452 C   0  0  0  0  0  0  0  0  0  0  0  0
   -9.9630    1.2534    0.6461 O   0  0  0  0  0  0  0  0  0  0  0  0
   -8.2236    2.6603    1.0790 O   0  0  0  0  0  0  0  0  0  0  0  0
   -2.3028    2.6707    2.2042 H   0  0  0  0  0  0  0  0  0  0  0  0
   -3.0893    4.3343    2.1770 H   0  0  0  0  0  0  0  0  0  0  0  0
   -1.4765    4.1398    1.4689 H   0  0  0  0  0  0  0  0  0  0  0  0
   -2.2268    2.9382   -0.3945 H   0  0  0  0  0  0  0  0  0  0  0  0
   -3.4132    4.6803   -1.3822 H   0  0  0  0  0  0  0  0  0  0  0  0
   -2.8542    5.4876    0.1653 H   0  0  0  0  0  0  0  0  0  0  0  0
   -4.5535    4.8571    0.0303 H   0  0  0  0  0  0  0  0  0  0  0  0
   -4.7592    2.4163   -0.6719 H   0  0  0  0  0  0  0  0  0  0  0  0
   -4.9534    2.9475    1.0327 H   0  0  0  0  0  0  0  0  0  0  0  0
   -3.5425    1.1096    1.8092 H   0  0  0  0  0  0  0  0  0  0  0  0
   -3.6143   -0.1669   -0.8895 H   0  0  0  0  0  0  0  0  0  0  0  0
   -1.7798   -1.0563   -1.8292 H   0  0  0  0  0  0  0  0  0  0  0  0
   -1.8936   -2.4652    0.1784 H   0  0  0  0  0  0  0  0  0  0  0  0
   -0.2901   -1.8614    0.6877 H   0  0  0  0  0  0  0  0  0  0  0  0
    1.8098   -3.0760   -0.1356 H   0  0  0  0  0  0  0  0  0  0  0  0
    2.4171   -4.9788   -1.7793 H   0  0  0  0  0  0  0  0  0  0  0  0
    0.9858   -6.4714   -3.6957 H   0  0  0  0  0  0  0  0  0  0  0  0
   -1.2504   -6.7375   -4.6877 H   0  0  0  0  0  0  0  0  0  0  0  0
   -3.0664   -5.3078   -3.9302 H   0  0  0  0  0  0  0  0  0  0  0  0
   -2.7387   -3.6024   -2.1873 H   0  0  0  0  0  0  0  0  0  0  0  0
    0.8452   -0.0297   -0.7833 H   0  0  0  0  0  0  0  0  0  0  0  0
    1.4605    0.6817   -4.4114 H   0  0  0  0  0  0  0  0  0  0  0  0
    2.0904   -0.9124   -3.9726 H   0  0  0  0  0  0  0  0  0  0  0  0
    2.5367    0.6718   -1.7026 H   0  0  0  0  0  0  0  0  0  0  0  0
    4.9007    2.6141   -2.6727 H   0  0  0  0  0  0  0  0  0  0  0  0
    6.0208    2.0669   -4.7429 H   0  0  0  0  0  0  0  0  0  0  0  0
    6.4247    0.3934   -4.0877 H   0  0  0  0  0  0  0  0  0  0  0  0
    7.5644    3.0902   -3.3187 H   0  0  0  0  0  0  0  0  0  0  0  0
    8.2499    1.4260   -3.0160 H   0  0  0  0  0  0  0  0  0  0  0  0
    7.5490    1.7819   -0.8271 H   0  0  0  0  0  0  0  0  0  0  0  0
    6.2758    2.9945   -1.3483 H   0  0  0  0  0  0  0  0  0  0  0  0
    6.0465   -1.2658    0.8652 H   0  0  0  0  0  0  0  0  0  0  0  0
    8.0563   -0.5720   -0.7581 H   0  0  0  0  0  0  0  0  0  0  0  0
    8.2560   -1.0578    0.8352 H   0  0  0  0  0  0  0  0  0  0  0  0
    6.2084    1.7767    1.0742 H   0  0  0  0  0  0  0  0  0  0  0  0
    4.9174    0.6327    1.6617 H   0  0  0  0  0  0  0  0  0  0  0  0
    5.3755   -0.4585    4.0646 H   0  0  0  0  0  0  0  0  0  0  0  0
    7.2345   -0.2997    5.8481 H   0  0  0  0  0  0  0  0  0  0  0  0
    9.8227    0.8092    5.9332 H   0  0  0  0  0  0  0  0  0  0  0  0
   11.4799    2.0464    4.5547 H   0  0  0  0  0  0  0  0  0  0  0  0
   10.9598    2.6718    2.3077 H   0  0  0  0  0  0  0  0  0  0  0  0
    8.7981    2.1168    1.2964 H   0  0  0  0  0  0  0  0  0  0  0  0
   -6.2289    1.7852    2.1258 H   0  0  0  0  0  0  0  0  0  0  0  0
   -7.7098   -0.3867    0.5845 H   0  0  0  0  0  0  0  0  0  0  0  0
   -7.4543   -1.1836    2.8721 H   0  0  0  0  0  0  0  0  0  0  0  0
   -8.1762    0.3707    3.5350 H   0  0  0  0  0  0  0  0  0  0  0  0
   -8.7267   -2.6100    1.4538 H   0  0  0  0  0  0  0  0  0  0  0  0
  -10.9268   -3.7168    1.1696 H   0  0  0  0  0  0  0  0  0  0  0  0
  -12.9160   -2.7198    2.0314 H   0  0  0  0  0  0  0  0  0  0  0  0
  -12.7568   -0.5148    3.2487 H   0  0  0  0  0  0  0  0  0  0  0  0
  -10.5574    0.5795    3.5202 H   0  0  0  0  0  0  0  0  0  0  0  0
  -10.3816    1.8887   -0.0650 H   0  0  0  0  0  0  0  0  0  0  0  0
  1  2  1  0
  2  3  1  0
  2  4  1  0
  4  5  1  0
  5  6  1  0
  6  7  1  0
  7  8  2  0
  7  9  1  0
  9 10  1  0
 10 11  1  0
 11 12  2  0
 12 13  1  0
 13 14  1  0
 14 15  2  0
 15 16  1  0
 16 17  2  0
 17 18  1  0
 18 19  2  0
  9 20  1  0
 20 21  1  0
 21 22  2  0
 21 23  1  0
 23 24  1  0
 24 25  1  0
 25 26  2  0
 25 27  1  0
 27 28  1  0
 28 29  1  0
 29 30  1  0
 30 31  1  0
 31 32  1  0
 32 33  2  0
 32 34  1  0
 34 35  1  0
 34 36  1  0
 36 37  1  0
 37 38  2  0
 38 39  1  0
 39 40  1  0
 40 41  2  0
 41 42  1  0
 42 43  2  0
 43 44  1  0
 44 45  2  0
  5 46  1  0
 46 47  2  0
 46 48  1  0
 48 49  1  0
 49 50  1  0
 50 51  1  0
 51 52  2  0
 52 53  1  0
 53 54  2  0
 54 55  1  0
 55 56  2  0
 49 57  1  0
 57 58  1  0
 57 59  2  0
 19 11  1  0
 31 27  1  0
 45 37  1  0
 56 51  1  0
 19 14  1  0
 45 40  1  0
  1 60  1  0
  1 61  1  0
  1 62  1  0
  2 63  1  0
  3 64  1  0
  3 65  1  0
  3 66  1  0
  4 67  1  0
  4 68  1  0
  5 69  1  1
  6 70  1  0
  9 71  1  6
 10 72  1  0
 10 73  1  0
 12 74  1  0
 13 75  1  0
 15 76  1  0
 16 77  1  0
 17 78  1  0
 18 79  1  0
 20 80  1  0
 23 81  1  0
 23 82  1  0
 24 83  1  0
 27 84  1  1
 28 85  1  0
 28 86  1  0
 29 87  1  0
 29 88  1  0
 30 89  1  0
 30 90  1  0
 34 91  1  1
 35 92  1  0
 35 93  1  0
 36 94  1  0
 36 95  1  0
 38 96  1  0
 39 97  1  0
 41 98  1  0
 42 99  1  0
 43100  1  0
 44101  1  0
 48102  1  0
 49103  1  6
 50104  1  0
 50105  1  0
 52106  1  0
 53107  1  0
 54108  1  0
 55109  1  0
 56110  1  0
 58111  1  0
M  END
$$$$
[H]c1nc(N([H])[H])c2c(-c3sc4c(OC([H])([H])[H])c([H])c(C([H])([H])[H])c([H])c4c3[H])c(C([H])([H])OC([H])([H])C([H])([H])[H])c(C(=O)N3C([H])([H])C([H])([H])N(C([H])(C([H])([H])[H])C([H])([H])[H])C([H])([H])C3([H])[H])n2n1
     RDKit          3D

 71 75  0  0  0  0  0  0  0  0999 V2000
    0.4198   -5.1879    0.5818 C   0  0  0  0  0  0  0  0  0  0  0  0
   -0.5945   -4.1118    0.3180 C   0  0  0  0  0  0  0  0  0  0  0  0
    0.0263   -2.8758    0.0892 O   0  0  0  0  0  0  0  0  0  0  0  0
   -0.9586   -1.9464   -0.1667 C   0  0  0  0  0  0  0  0  0  0  0  0
   -0.4849   -0.5822   -0.4635 C   0  0  0  0  0  0  0  0  0  0  0  0
   -1.3031    0.5531   -0.6407 C   0  0  0  0  0  0  0  0  0  0  0  0
   -2.7577    0.5444   -0.3924 C   0  0  0  0  0  0  0  0  0  0  0  0
   -3.6742   -0.4638   -0.4209 C   0  0  0  0  0  0  0  0  0  0  0  0
   -4.9481   -0.1882   -0.0708 C   0  0  0  0  0  0  0  0  0  0  0  0
   -6.0063   -1.1185    0.0261 C   0  0  0  0  0  0  0  0  0  0  0  0
   -7.2324   -0.7004    0.4590 C   0  0  0  0  0  0  0  0  0  0  0  0
   -8.3438   -1.6952    0.5837 C   0  0  0  0  0  0  0  0  0  0  0  0
   -7.5411    0.6063    0.8233 C   0  0  0  0  0  0  0  0  0  0  0  0
   -6.5144    1.4871    0.7234 C   0  0  0  0  0  0  0  0  0  0  0  0
   -6.6321    2.8343    1.0282 O   0  0  0  0  0  0  0  0  0  0  0  0
   -7.8764    3.3349    1.5340 C   0  0  0  0  0  0  0  0  0  0  0  0
   -5.2434    1.0796    0.2839 C   0  0  0  0  0  0  0  0  0  0  0  0
   -3.7559    1.8608    0.1271 S   0  0  0  0  0  0  0  0  0  0  0  0
   -0.4835    1.5832   -0.9323 C   0  0  0  0  0  0  0  0  0  0  0  0
   -0.6937    2.9011   -1.2821 C   0  0  0  0  0  0  0  0  0  0  0  0
   -1.9574    3.5093   -1.4654 N   0  0  0  0  0  0  0  0  0  0  0  0
    0.3817    3.6780   -1.5903 N   0  0  0  0  0  0  0  0  0  0  0  0
    1.6245    3.2070   -1.5705 C   0  0  0  0  0  0  0  0  0  0  0  0
    1.7738    1.9317   -1.2356 N   0  0  0  0  0  0  0  0  0  0  0  0
    0.8016    1.1061   -0.9218 N   0  0  0  0  0  0  0  0  0  0  0  0
    0.8328   -0.2318   -0.6355 C   0  0  0  0  0  0  0  0  0  0  0  0
    2.0197   -1.0516   -0.7874 C   0  0  0  0  0  0  0  0  0  0  0  0
    1.9400   -2.1797   -1.4081 O   0  0  0  0  0  0  0  0  0  0  0  0
    3.2990   -0.7373   -0.2927 N   0  0  0  0  0  0  0  0  0  0  0  0
    4.4195   -1.6462   -0.6568 C   0  0  0  0  0  0  0  0  0  0  0  0
    5.5835   -0.8047   -1.0553 C   0  0  0  0  0  0  0  0  0  0  0  0
    5.9420    0.0406    0.0421 N   0  0  0  0  0  0  0  0  0  0  0  0
    4.9213    0.9970    0.3436 C   0  0  0  0  0  0  0  0  0  0  0  0
    3.6541    0.2473    0.6778 C   0  0  0  0  0  0  0  0  0  0  0  0
    7.2350    0.6032   -0.1651 C   0  0  0  0  0  0  0  0  0  0  0  0
    8.0049    0.7843    1.1289 C   0  0  0  0  0  0  0  0  0  0  0  0
    7.1956    1.9081   -0.9269 C   0  0  0  0  0  0  0  0  0  0  0  0
    0.8897   -5.0384    1.5574 H   0  0  0  0  0  0  0  0  0  0  0  0
    1.1409   -5.2996   -0.2605 H   0  0  0  0  0  0  0  0  0  0  0  0
   -0.1327   -6.1574    0.6094 H   0  0  0  0  0  0  0  0  0  0  0  0
   -1.1875   -4.3674   -0.5927 H   0  0  0  0  0  0  0  0  0  0  0  0
   -1.2153   -3.9940    1.2306 H   0  0  0  0  0  0  0  0  0  0  0  0
   -1.4755   -2.3193   -1.1124 H   0  0  0  0  0  0  0  0  0  0  0  0
   -1.6637   -1.9414    0.6644 H   0  0  0  0  0  0  0  0  0  0  0  0
   -3.3577   -1.4742   -0.7769 H   0  0  0  0  0  0  0  0  0  0  0  0
   -5.8784   -2.1695   -0.2260 H   0  0  0  0  0  0  0  0  0  0  0  0
   -8.3949   -2.1511    1.5826 H   0  0  0  0  0  0  0  0  0  0  0  0
   -8.2458   -2.4825   -0.2064 H   0  0  0  0  0  0  0  0  0  0  0  0
   -9.3299   -1.2084    0.4170 H   0  0  0  0  0  0  0  0  0  0  0  0
   -8.5247    0.8893    1.1549 H   0  0  0  0  0  0  0  0  0  0  0  0
   -8.3368    2.5991    2.2296 H   0  0  0  0  0  0  0  0  0  0  0  0
   -7.7402    4.3214    2.0074 H   0  0  0  0  0  0  0  0  0  0  0  0
   -8.5439    3.4554    0.6684 H   0  0  0  0  0  0  0  0  0  0  0  0
   -2.6006    3.2579   -2.2521 H   0  0  0  0  0  0  0  0  0  0  0  0
   -2.2612    4.2744   -0.8088 H   0  0  0  0  0  0  0  0  0  0  0  0
    2.4830    3.8544   -1.8236 H   0  0  0  0  0  0  0  0  0  0  0  0
    4.0905   -2.3232   -1.4715 H   0  0  0  0  0  0  0  0  0  0  0  0
    4.6008   -2.2254    0.2672 H   0  0  0  0  0  0  0  0  0  0  0  0
    6.4296   -1.4777   -1.3064 H   0  0  0  0  0  0  0  0  0  0  0  0
    5.3192   -0.1763   -1.9216 H   0  0  0  0  0  0  0  0  0  0  0  0
    5.2562    1.5438    1.2664 H   0  0  0  0  0  0  0  0  0  0  0  0
    4.7059    1.6957   -0.4712 H   0  0  0  0  0  0  0  0  0  0  0  0
    2.8592    0.8374    1.1237 H   0  0  0  0  0  0  0  0  0  0  0  0
    3.9557   -0.4251    1.6016 H   0  0  0  0  0  0  0  0  0  0  0  0
    7.8301   -0.1177   -0.7629 H   0  0  0  0  0  0  0  0  0  0  0  0
    7.7792   -0.0159    1.8351 H   0  0  0  0  0  0  0  0  0  0  0  0
    9.0946    0.7757    0.9306 H   0  0  0  0  0  0  0  0  0  0  0  0
    7.8021    1.8050    1.5674 H   0  0  0  0  0  0  0  0  0  0  0  0
    7.1222    2.7713   -0.2343 H   0  0  0  0  0  0  0  0  0  0  0  0
    6.3469    1.9504   -1.6425 H   0  0  0  0  0  0  0  0  0  0  0  0
    8.1097    2.0575   -1.5385 H   0  0  0  0  0  0  0  0  0  0  0  0
  1  2  1  0
  2  3  1  0
  3  4  1  0
  4  5  1  0
  5  6  1  0
  6  7  1  0
  7  8  2  0
  8  9  1  0
  9 10  2  0
 10 11  1  0
 11 12  1  0
 11 13  2  0
 13 14  1  0
 14 15  1  0
 15 16  1  0
 14 17  2  0
 17 18  1  0
  6 19  2  0
 19 20  1  0
 20 21  1  0
 20 22  2  0
 22 23  1  0
 23 24  2  0
 24 25  1  0
 25 26  1  0
 26 27  1  0
 27 28  2  0
 27 29  1  0
 29 30  1  0
 30 31  1  0
 31 32  1  0
 32 33  1  0
 33 34  1  0
 32 35  1  0
 35 36  1  0
 35 37  1  0
 26  5  2  0
 34 29  1  0
 18  7  1  0
 25 19  1  0
 17  9  1  0
  1 38  1  0
  1 39  1  0
  1 40  1  0
  2 41  1  0
  2 42  1  0
  4 43  1  0
  4 44  1  0
  8 45  1  0
 10 46  1  0
 12 47  1  0
 12 48  1  0
 12 49  1  0
 13 50  1  0
 16 51  1  0
 16 52  1  0
 16 53  1  0
 21 54  1  0
 21 55  1  0
 23 56  1  0
 30 57  1  0
 30 58  1  0
 31 59  1  0
 31 60  1  0
 33 61  1  0
 33 62  1  0
 34 63  1  0
 34 64  1  0
 35 65  1  0
 36 66  1  0
 36 67  1  0
 36 68  1  0
 37 69  1  0
 37 70  1  0
 37 71  1  0
M  END
$$$$
[H]OC([H])([H])[C@@]1([H])N(C(=O)c2c([H])c(C(=O)N([H])S(=O)(=O)c3c([H])c([H])c4c([H])c([H])c([H])c(Cl)c4c3[H])c([H])c([H])c2-n2nc(C(=O)N(C([H])([H])C([H])([H])C([H])([H])C([H])([H])[H])C([H])([H])C([H])([H])C([H])([H])C([H])([H])[H])c(Cl)c2C([H])([H])[H])C([H])([H])c2c([H])c([H])c([H])c([H])c2C1([H])[H]
     RDKit          3D

 98103  0  0  0  0  0  0  0  0999 V2000
   -8.8224   -1.3843    1.7330 C   0  0  0  0  0  0  0  0  0  0  0  0
   -8.6732   -0.1041    0.9548 C   0  0  0  0  0  0  0  0  0  0  0  0
   -7.1937    0.1846    0.6627 C   0  0  0  0  0  0  0  0  0  0  0  0
   -6.6166   -0.9357   -0.1282 C   0  0  0  0  0  0  0  0  0  0  0  0
   -5.2007   -0.7461   -0.4880 N   0  0  0  0  0  0  0  0  0  0  0  0
   -4.2301   -1.2879    0.4105 C   0  0  0  0  0  0  0  0  0  0  0  0
   -3.7425   -0.3395    1.4719 C   0  0  0  0  0  0  0  0  0  0  0  0
   -2.7051   -1.1311    2.2821 C   0  0  0  0  0  0  0  0  0  0  0  0
   -3.2899   -2.3403    2.9275 C   0  0  0  0  0  0  0  0  0  0  0  0
   -4.9721   -0.0705   -1.6956 C   0  0  0  0  0  0  0  0  0  0  0  0
   -6.0087    0.3185   -2.3476 O   0  0  0  0  0  0  0  0  0  0  0  0
   -3.6847    0.2321   -2.2931 C   0  0  0  0  0  0  0  0  0  0  0  0
   -2.4653   -0.0260   -1.8448 N   0  0  0  0  0  0  0  0  0  0  0  0
   -1.5099    0.3476   -2.6632 N   0  0  0  0  0  0  0  0  0  0  0  0
   -2.1138    0.8943   -3.7361 C   0  0  0  0  0  0  0  0  0  0  0  0
   -1.4226    1.4349   -4.9345 C   0  0  0  0  0  0  0  0  0  0  0  0
   -3.4711    0.8371   -3.5325 C   0  0  0  0  0  0  0  0  0  0  0  0
   -4.7258    1.4119   -4.6016 Cl  0  0  0  0  0  0  0  0  0  0  0  0
   -0.1093    0.2178   -2.5192 C   0  0  0  0  0  0  0  0  0  0  0  0
    0.5166   -0.9662   -2.9279 C   0  0  0  0  0  0  0  0  0  0  0  0
    1.8741   -1.1394   -2.8391 C   0  0  0  0  0  0  0  0  0  0  0  0
    2.6889   -0.1407   -2.3370 C   0  0  0  0  0  0  0  0  0  0  0  0
    2.0735    1.0237   -1.9335 C   0  0  0  0  0  0  0  0  0  0  0  0
    0.7119    1.2017   -2.0203 C   0  0  0  0  0  0  0  0  0  0  0  0
    0.1491    2.4519   -1.5581 C   0  0  0  0  0  0  0  0  0  0  0  0
   -0.0202    3.4233   -2.3415 O   0  0  0  0  0  0  0  0  0  0  0  0
   -0.2453    2.6579   -0.1961 N   0  0  0  0  0  0  0  0  0  0  0  0
   -0.0231    1.5382    0.7177 C   0  0  0  0  0  0  0  0  0  0  0  0
    0.3032    2.0718    2.0862 C   0  0  0  0  0  0  0  0  0  0  0  0
    1.2629    1.5297    2.8911 C   0  0  0  0  0  0  0  0  0  0  0  0
    1.5062    2.0620    4.1315 C   0  0  0  0  0  0  0  0  0  0  0  0
    0.7609    3.1539    4.5447 C   0  0  0  0  0  0  0  0  0  0  0  0
   -0.2210    3.7009    3.7062 C   0  0  0  0  0  0  0  0  0  0  0  0
   -0.4631    3.1698    2.4695 C   0  0  0  0  0  0  0  0  0  0  0  0
   -1.4891    3.7414    1.5671 C   0  0  0  0  0  0  0  0  0  0  0  0
   -0.8346    3.9015    0.2121 C   0  0  1  0  0  0  0  0  0  0  0  0
    0.1223    5.0712    0.2221 C   0  0  0  0  0  0  0  0  0  0  0  0
   -0.6143    6.1870    0.6273 O   0  0  0  0  0  0  0  0  0  0  0  0
    4.1336   -0.2851   -2.2535 C   0  0  0  0  0  0  0  0  0  0  0  0
    4.7704    0.5016   -1.5369 O   0  0  0  0  0  0  0  0  0  0  0  0
    4.7927   -1.2918   -2.9717 N   0  0  0  0  0  0  0  0  0  0  0  0
    6.4938   -1.5729   -2.9715 S   0  0  0  0  0  0  0  0  0  0  0  0
    7.1551   -0.2170   -2.8941 O   0  0  0  0  0  0  0  0  0  0  0  0
    6.8979   -2.1881   -4.2801 O   0  0  0  0  0  0  0  0  0  0  0  0
    6.9973   -2.5642   -1.6367 C   0  0  0  0  0  0  0  0  0  0  0  0
    6.8779   -3.9358   -1.6551 C   0  0  0  0  0  0  0  0  0  0  0  0
    7.3058   -4.7149   -0.6031 C   0  0  0  0  0  0  0  0  0  0  0  0
    7.8725   -4.1600    0.5161 C   0  0  0  0  0  0  0  0  0  0  0  0
    8.3092   -4.9472    1.5631 C   0  0  0  0  0  0  0  0  0  0  0  0
    8.8885   -4.3803    2.6819 C   0  0  0  0  0  0  0  0  0  0  0  0
    9.0330   -3.0033    2.7534 C   0  0  0  0  0  0  0  0  0  0  0  0
    8.5932   -2.2306    1.7022 C   0  0  0  0  0  0  0  0  0  0  0  0
    8.7652   -0.4974    1.7606 Cl  0  0  0  0  0  0  0  0  0  0  0  0
    8.0084   -2.7760    0.5688 C   0  0  0  0  0  0  0  0  0  0  0  0
    7.5757   -2.0016   -0.4923 C   0  0  0  0  0  0  0  0  0  0  0  0
   -8.8569   -2.2748    1.0517 H   0  0  0  0  0  0  0  0  0  0  0  0
   -7.9651   -1.5179    2.4108 H   0  0  0  0  0  0  0  0  0  0  0  0
   -9.7593   -1.3550    2.3165 H   0  0  0  0  0  0  0  0  0  0  0  0
   -9.1305    0.7268    1.5173 H   0  0  0  0  0  0  0  0  0  0  0  0
   -9.2094   -0.2170   -0.0004 H   0  0  0  0  0  0  0  0  0  0  0  0
   -6.7178    0.4330    1.6025 H   0  0  0  0  0  0  0  0  0  0  0  0
   -7.1839    1.1231    0.0396 H   0  0  0  0  0  0  0  0  0  0  0  0
   -7.1823   -1.1034   -1.0749 H   0  0  0  0  0  0  0  0  0  0  0  0
   -6.6732   -1.8656    0.4515 H   0  0  0  0  0  0  0  0  0  0  0  0
   -3.3560   -1.6816   -0.1451 H   0  0  0  0  0  0  0  0  0  0  0  0
   -4.6290   -2.1755    0.9672 H   0  0  0  0  0  0  0  0  0  0  0  0
   -3.2016    0.5171    1.0307 H   0  0  0  0  0  0  0  0  0  0  0  0
   -4.4962   -0.0063    2.1844 H   0  0  0  0  0  0  0  0  0  0  0  0
   -2.1954   -0.5135    3.0191 H   0  0  0  0  0  0  0  0  0  0  0  0
   -1.9242   -1.4752    1.5606 H   0  0  0  0  0  0  0  0  0  0  0  0
   -3.1180   -3.2244    2.3031 H   0  0  0  0  0  0  0  0  0  0  0  0
   -4.4030   -2.2617    3.0459 H   0  0  0  0  0  0  0  0  0  0  0  0
   -2.8580   -2.4732    3.9446 H   0  0  0  0  0  0  0  0  0  0  0  0
   -1.4871    2.5344   -4.9256 H   0  0  0  0  0  0  0  0  0  0  0  0
   -0.3584    1.1467   -4.9083 H   0  0  0  0  0  0  0  0  0  0  0  0
   -1.8548    1.0029   -5.8675 H   0  0  0  0  0  0  0  0  0  0  0  0
   -0.1142   -1.7539   -3.3237 H   0  0  0  0  0  0  0  0  0  0  0  0
    2.3481   -2.0776   -3.1550 H   0  0  0  0  0  0  0  0  0  0  0  0
    2.7223    1.8035   -1.5396 H   0  0  0  0  0  0  0  0  0  0  0  0
   -0.8619    0.8442    0.7289 H   0  0  0  0  0  0  0  0  0  0  0  0
    0.8672    0.9898    0.3738 H   0  0  0  0  0  0  0  0  0  0  0  0
    1.8350    0.6844    2.5642 H   0  0  0  0  0  0  0  0  0  0  0  0
    2.2665    1.6700    4.8261 H   0  0  0  0  0  0  0  0  0  0  0  0
    0.9407    3.5786    5.5179 H   0  0  0  0  0  0  0  0  0  0  0  0
   -0.7956    4.5643    4.0611 H   0  0  0  0  0  0  0  0  0  0  0  0
   -2.3902    3.1215    1.4700 H   0  0  0  0  0  0  0  0  0  0  0  0
   -1.8108    4.7518    1.8984 H   0  0  0  0  0  0  0  0  0  0  0  0
   -1.6428    4.1699   -0.5391 H   0  0  0  0  0  0  0  0  0  0  0  0
    0.5953    5.1818   -0.7495 H   0  0  0  0  0  0  0  0  0  0  0  0
    0.9239    4.9567    0.9814 H   0  0  0  0  0  0  0  0  0  0  0  0
   -0.3450    6.9591    0.1051 H   0  0  0  0  0  0  0  0  0  0  0  0
    4.2325   -1.9444   -3.5706 H   0  0  0  0  0  0  0  0  0  0  0  0
    6.4259   -4.3922   -2.5425 H   0  0  0  0  0  0  0  0  0  0  0  0
    7.1963   -5.7880   -0.6518 H   0  0  0  0  0  0  0  0  0  0  0  0
    8.1958   -6.0175    1.5080 H   0  0  0  0  0  0  0  0  0  0  0  0
    9.2256   -5.0136    3.4886 H   0  0  0  0  0  0  0  0  0  0  0  0
    9.4897   -2.5986    3.6421 H   0  0  0  0  0  0  0  0  0  0  0  0
    7.6849   -0.9171   -0.4475 H   0  0  0  0  0  0  0  0  0  0  0  0
  1  2  1  0
  2  3  1  0
  3  4  1  0
  4  5  1  0
  5  6  1  0
  6  7  1  0
  7  8  1  0
  8  9  1  0
  5 10  1  0
 10 11  2  0
 10 12  1  0
 12 13  2  0
 13 14  1  0
 14 15  1  0
 15 16  1  0
 15 17  2  0
 17 18  1  0
 14 19  1  0
 19 20  2  0
 20 21  1  0
 21 22  2  0
 22 23  1  0
 23 24  2  0
 24 25  1  0
 25 26  2  0
 25 27  1  0
 27 28  1  0
 28 29  1  0
 29 30  2  0
 30 31  1  0
 31 32  2  0
 32 33  1  0
 33 34  2  0
 34 35  1  0
 35 36  1  0
 36 37  1  0
 37 38  1  0
 22 39  1  0
 39 40  2  0
 39 41  1  0
 41 42  1  0
 42 43  2  0
 42 44  2  0
 42 45  1  0
 45 46  2  0
 46 47  1  0
 47 48  2  0
 48 49  1  0
 49 50  2  0
 50 51  1  0
 51 52  2  0
 52 53  1  0
 52 54  1  0
 54 55  2  0
 17 12  1  0
 24 19  1  0
 36 27  1  0
 55 45  1  0
 34 29  1  0
 54 48  1  0
  1 56  1  0
  1 57  1  0
  1 58  1  0
  2 59  1  0
  2 60  1  0
  3 61  1  0
  3 62  1  0
  4 63  1  0
  4 64  1  0
  6 65  1  0
  6 66  1  0
  7 67  1  0
  7 68  1  0
  8 69  1  0
  8 70  1  0
  9 71  1  0
  9 72  1  0
  9 73  1  0
 16 74  1  0
 16 75  1  0
 16 76  1  0
 20 77  1  0
 21 78  1  0
 23 79  1  0
 28 80  1  0
 28 81  1  0
 30 82  1  0
 31 83  1  0
 32 84  1  0
 33 85  1  0
 35 86  1  0
 35 87  1  0
 36 88  1  6
 37 89  1  0
 37 90  1  0
 38 91  1  0
 41 92  1  0
 46 93  1  0
 47 94  1  0
 49 95  1  0
 50 96  1  0
 51 97  1  0
 55 98  1  0
M  END
$$$$
[H]c1c([H])c(S(=O)(=O)N2C([H])([H])C([H])([H])N(C([H])([H])c3c([H])c([H])c([N+](=O)[O-])c([H])c3[H])C([H])([H])C2([H])[H])c([H])c([H])c1Br
     RDKit          3D

 44 46  0  0  0  0  0  0  0  0999 V2000
    5.9112    3.2510   -2.6561 O   0  0  0  0  0  0  0  0  0  0  0  0
    4.9824    3.2499   -1.6600 N   0  0  0  0  0  0  0  0  0  0  0  0
    4.6815    4.3081   -1.0989 O   0  0  0  0  0  0  0  0  0  0  0  0
    4.3567    2.0462   -1.2602 C   0  0  0  0  0  0  0  0  0  0  0  0
    3.4146    2.0081   -0.2551 C   0  0  0  0  0  0  0  0  0  0  0  0
    2.7973    0.8433    0.1452 C   0  0  0  0  0  0  0  0  0  0  0  0
    3.1092   -0.3550   -0.4621 C   0  0  0  0  0  0  0  0  0  0  0  0
    2.4590   -1.6421   -0.0620 C   0  0  0  0  0  0  0  0  0  0  0  0
    1.1477   -1.3865    0.4248 N   0  0  0  0  0  0  0  0  0  0  0  0
    0.2366   -0.7936   -0.4689 C   0  0  0  0  0  0  0  0  0  0  0  0
   -1.1174   -1.4444   -0.5491 C   0  0  0  0  0  0  0  0  0  0  0  0
   -1.6471   -1.8684    0.7071 N   0  0  0  0  0  0  0  0  0  0  0  0
   -0.7151   -2.7197    1.3537 C   0  0  0  0  0  0  0  0  0  0  0  0
    0.6706   -2.2195    1.4528 C   0  0  0  0  0  0  0  0  0  0  0  0
   -2.1748   -0.5473    1.6650 S   0  0  0  0  0  0  0  0  0  0  0  0
   -0.9847    0.3141    1.9779 O   0  0  0  0  0  0  0  0  0  0  0  0
   -2.6990   -1.0455    2.9941 O   0  0  0  0  0  0  0  0  0  0  0  0
   -3.4594    0.3520    0.8969 C   0  0  0  0  0  0  0  0  0  0  0  0
   -4.7870    0.0409    1.1077 C   0  0  0  0  0  0  0  0  0  0  0  0
   -5.8114    0.7481    0.5038 C   0  0  0  0  0  0  0  0  0  0  0  0
   -5.5392    1.8035   -0.3419 C   0  0  0  0  0  0  0  0  0  0  0  0
   -6.9549    2.7841   -1.1787 Br  0  0  0  0  0  0  0  0  0  0  0  0
   -4.2165    2.1256   -0.5619 C   0  0  0  0  0  0  0  0  0  0  0  0
   -3.2028    1.4143    0.0451 C   0  0  0  0  0  0  0  0  0  0  0  0
    4.0602   -0.3228   -1.4779 C   0  0  0  0  0  0  0  0  0  0  0  0
    4.6834    0.8370   -1.8856 C   0  0  0  0  0  0  0  0  0  0  0  0
    3.1555    2.9527    0.2374 H   0  0  0  0  0  0  0  0  0  0  0  0
    2.0582    0.8443    0.9463 H   0  0  0  0  0  0  0  0  0  0  0  0
    3.0699   -2.0786    0.7506 H   0  0  0  0  0  0  0  0  0  0  0  0
    2.5095   -2.3574   -0.9104 H   0  0  0  0  0  0  0  0  0  0  0  0
    0.6711   -0.8216   -1.4926 H   0  0  0  0  0  0  0  0  0  0  0  0
    0.0767    0.2708   -0.2387 H   0  0  0  0  0  0  0  0  0  0  0  0
   -1.8219   -0.7003   -0.9847 H   0  0  0  0  0  0  0  0  0  0  0  0
   -1.0740   -2.2811   -1.2833 H   0  0  0  0  0  0  0  0  0  0  0  0
   -0.7185   -3.7149    0.8197 H   0  0  0  0  0  0  0  0  0  0  0  0
   -1.0716   -2.9648    2.3874 H   0  0  0  0  0  0  0  0  0  0  0  0
    0.8565   -1.6983    2.4371 H   0  0  0  0  0  0  0  0  0  0  0  0
    1.3521   -3.1205    1.5112 H   0  0  0  0  0  0  0  0  0  0  0  0
   -5.0294   -0.7939    1.7759 H   0  0  0  0  0  0  0  0  0  0  0  0
   -6.8461    0.5003    0.6725 H   0  0  0  0  0  0  0  0  0  0  0  0
   -3.9689    2.9556   -1.2262 H   0  0  0  0  0  0  0  0  0  0  0  0
   -2.1525    1.6541   -0.1169 H   0  0  0  0  0  0  0  0  0  0  0  0
    4.3129   -1.2549   -1.9611 H   0  0  0  0  0  0  0  0  0  0  0  0
    5.4196    0.8271   -2.6799 H   0  0  0  0  0  0  0  0  0  0  0  0
  1  2  1  0
  2  3  2  0
  2  4  1  0
  4  5  2  0
  5  6  1  0
  6  7  2  0
  7  8  1  0
  8  9  1  0
  9 10  1  0
 10 11  1  0
 11 12  1  0
 12 13  1  0
 13 14  1  0
 12 15  1  0
 15 16  2  0
 15 17  2  0
 15 18  1  0
 18 19  2  0
 19 20  1  0
 20 21  2  0
 21 22  1  0
 21 23  1  0
 23 24  2  0
  7 25  1  0
 25 26  2  0
 26  4  1  0
 14  9  1  0
 24 18  1  0
  5 27  1  0
  6 28  1  0
  8 29  1  0
  8 30  1  0
 10 31  1  0
 10 32  1  0
 11 33  1  0
 11 34  1  0
 13 35  1  0
 13 36  1  0
 14 37  1  0
 14 38  1  0
 19 39  1  0
 20 40  1  0
 23 41  1  0
 24 42  1  0
 25 43  1  0
 26 44  1  0
M  CHG  2   1  -1   2   1
M  END
$$$$
[H]OC([H])([H])[C@@]1(O[H])C([H])([H])[C@@]2([H])O[C@]1(C([H])([H])[H])n1c3c([H])c([H])c([H])c([H])c3c3c4c(c5c6c([H])c([H])c([H])c([H])c6n2c5c31)C(=O)N([H])C4([H])[H]
     RDKit          3D

 54 61  0  0  0  0  0  0  0  0999 V2000
    3.1800    0.8838    1.3878 C   0  0  0  0  0  0  0  0  0  0  0  0
    2.1176    0.2237    0.5774 C   0  0  2  0  0  0  0  0  0  0  0  0
    1.6968   -0.7870    1.4854 O   0  0  0  0  0  0  0  0  0  0  0  0
    1.2511   -1.8639    0.7986 C   0  0  2  0  0  0  0  0  0  0  0  0
    2.0328   -1.9517   -0.4419 C   0  0  0  0  0  0  0  0  0  0  0  0
    2.6347   -0.5714   -0.5849 C   0  0  1  0  0  0  0  0  0  0  0  0
    2.2138   -0.0799   -1.8115 O   0  0  0  0  0  0  0  0  0  0  0  0
    4.1191   -0.7109   -0.6110 C   0  0  0  0  0  0  0  0  0  0  0  0
    4.4589   -1.5975   -1.6334 O   0  0  0  0  0  0  0  0  0  0  0  0
   -0.2014   -1.7853    0.5955 N   0  0  0  0  0  0  0  0  0  0  0  0
   -1.1044   -2.7499    0.6347 C   0  0  0  0  0  0  0  0  0  0  0  0
   -0.9179   -4.0868    0.8734 C   0  0  0  0  0  0  0  0  0  0  0  0
   -2.0299   -4.9199    0.8648 C   0  0  0  0  0  0  0  0  0  0  0  0
   -3.2823   -4.4161    0.6235 C   0  0  0  0  0  0  0  0  0  0  0  0
   -3.4758   -3.0511    0.3794 C   0  0  0  0  0  0  0  0  0  0  0  0
   -2.3768   -2.2421    0.3902 C   0  0  0  0  0  0  0  0  0  0  0  0
   -2.2053   -0.8905    0.1945 C   0  0  0  0  0  0  0  0  0  0  0  0
   -3.0670    0.1511   -0.0975 C   0  0  0  0  0  0  0  0  0  0  0  0
   -4.5001    0.2660   -0.2996 C   0  0  0  0  0  0  0  0  0  0  0  0
   -5.3884   -0.5871   -0.2658 O   0  0  0  0  0  0  0  0  0  0  0  0
   -4.7851    1.6416   -0.5724 N   0  0  0  0  0  0  0  0  0  0  0  0
   -3.5735    2.4248   -0.5610 C   0  0  0  0  0  0  0  0  0  0  0  0
   -2.5314    1.4168   -0.2472 C   0  0  0  0  0  0  0  0  0  0  0  0
   -1.1701    1.6669   -0.1133 C   0  0  0  0  0  0  0  0  0  0  0  0
   -0.3770    2.7657   -0.2198 C   0  0  0  0  0  0  0  0  0  0  0  0
   -0.7006    4.0705   -0.5126 C   0  0  0  0  0  0  0  0  0  0  0  0
    0.3203    5.0230   -0.5829 C   0  0  0  0  0  0  0  0  0  0  0  0
    1.6233    4.6180   -0.3553 C   0  0  0  0  0  0  0  0  0  0  0  0
    1.9232    3.2989   -0.0625 C   0  0  0  0  0  0  0  0  0  0  0  0
    0.9354    2.3466    0.0129 C   0  0  0  0  0  0  0  0  0  0  0  0
    0.9590    1.0103    0.2643 N   0  0  0  0  0  0  0  0  0  0  0  0
   -0.3578    0.6223    0.1746 C   0  0  0  0  0  0  0  0  0  0  0  0
   -0.8544   -0.6533    0.3299 C   0  0  0  0  0  0  0  0  0  0  0  0
    4.0624    1.2462    0.8471 H   0  0  0  0  0  0  0  0  0  0  0  0
    3.5596    0.1949    2.1815 H   0  0  0  0  0  0  0  0  0  0  0  0
    2.7312    1.7230    1.9466 H   0  0  0  0  0  0  0  0  0  0  0  0
    1.4219   -2.7643    1.4120 H   0  0  0  0  0  0  0  0  0  0  0  0
    1.4720   -2.2700   -1.3403 H   0  0  0  0  0  0  0  0  0  0  0  0
    2.8377   -2.7359   -0.3258 H   0  0  0  0  0  0  0  0  0  0  0  0
    2.8799   -0.3390   -2.4928 H   0  0  0  0  0  0  0  0  0  0  0  0
    4.5238   -1.1579    0.3296 H   0  0  0  0  0  0  0  0  0  0  0  0
    4.6358    0.2581   -0.8438 H   0  0  0  0  0  0  0  0  0  0  0  0
    4.7979   -2.4633   -1.2908 H   0  0  0  0  0  0  0  0  0  0  0  0
    0.0592   -4.4684    1.0598 H   0  0  0  0  0  0  0  0  0  0  0  0
   -1.8569   -5.9719    1.0560 H   0  0  0  0  0  0  0  0  0  0  0  0
   -4.1224   -5.0759    0.6219 H   0  0  0  0  0  0  0  0  0  0  0  0
   -4.4721   -2.7398    0.2018 H   0  0  0  0  0  0  0  0  0  0  0  0
   -5.7336    2.0654   -0.7610 H   0  0  0  0  0  0  0  0  0  0  0  0
   -3.6366    3.2333    0.1993 H   0  0  0  0  0  0  0  0  0  0  0  0
   -3.3846    2.8954   -1.5673 H   0  0  0  0  0  0  0  0  0  0  0  0
   -1.7294    4.3700   -0.6881 H   0  0  0  0  0  0  0  0  0  0  0  0
    0.0587    6.0490   -0.8135 H   0  0  0  0  0  0  0  0  0  0  0  0
    2.3774    5.3965   -0.4223 H   0  0  0  0  0  0  0  0  0  0  0  0
    2.9510    3.0689    0.0761 H   0  0  0  0  0  0  0  0  0  0  0  0
  2  1  1  1
  2  3  1  0
  3  4  1  0
  4  5  1  0
  5  6  1  0
  6  7  1  6
  6  8  1  0
  8  9  1  0
  4 10  1  0
 10 11  1  0
 11 12  2  0
 12 13  1  0
 13 14  2  0
 14 15  1  0
 15 16  2  0
 16 17  1  0
 17 18  2  0
 18 19  1  0
 19 20  2  0
 19 21  1  0
 21 22  1  0
 22 23  1  0
 23 24  2  0
 24 25  1  0
 25 26  2  0
 26 27  1  0
 27 28  2  0
 28 29  1  0
 29 30  2  0
 30 31  1  0
 31 32  1  0
 32 33  2  0
  6  2  1  0
 33 10  1  0
 31  2  1  0
 16 11  1  0
 33 17  1  0
 23 18  1  0
 32 24  1  0
 30 25  1  0
  1 34  1  0
  1 35  1  0
  1 36  1  0
  4 37  1  1
  5 38  1  0
  5 39  1  0
  7 40  1  0
  8 41  1  0
  8 42  1  0
  9 43  1  0
 12 44  1  0
 13 45  1  0
 14 46  1  0
 15 47  1  0
 21 48  1  0
 22 49  1  0
 22 50  1  0
 26 51  1  0
 27 52  1  0
 28 53  1  0
 29 54  1  0
M  END
$$$$
[H]OC(=O)[C@@]([H])(N([H])C(=O)[C@@]([H])(N([H])C(=O)[C@@]([H])(N([H])C(=O)[C@@]([H])(N([H])C(=O)OC(C([H])([H])[H])(C([H])([H])[H])C([H])([H])[H])C([H])([H])c1c([H])n([H])c2c([H])c([H])c([H])c([H])c12)[C@@]([H])(C([H])([H])[H])C([H])([H])C([H])([H])[H])C([H])([H])C([H])(C([H])([H])[H])C([H])([H])[H])C([H])([H])c1c([H])c([H])c([H])c([H])c1[H]
     RDKit          3D

100102  0  0  0  0  0  0  0  0999 V2000
   -2.3968    2.5704    3.4414 C   0  0  0  0  0  0  0  0  0  0  0  0
   -1.0227    2.2993    3.8665 C   0  0  0  0  0  0  0  0  0  0  0  0
   -0.0759    1.5689    2.9575 C   0  0  2  0  0  0  0  0  0  0  0  0
    1.2538    1.4859    3.6597 C   0  0  0  0  0  0  0  0  0  0  0  0
   -0.1040    1.8848    1.5303 C   0  0  2  0  0  0  0  0  0  0  0  0
   -1.2812    1.5626    0.7723 N   0  0  0  0  0  0  0  0  0  0  0  0
   -2.1926    0.5291    0.8356 C   0  0  0  0  0  0  0  0  0  0  0  0
   -2.0830   -0.4050    1.6731 O   0  0  0  0  0  0  0  0  0  0  0  0
   -3.3855    0.4181   -0.0649 C   0  0  2  0  0  0  0  0  0  0  0  0
   -4.1155    1.7098   -0.2396 C   0  0  0  0  0  0  0  0  0  0  0  0
   -5.2978    1.6730   -1.1109 C   0  0  0  0  0  0  0  0  0  0  0  0
   -5.3305    1.9632   -2.4747 C   0  0  0  0  0  0  0  0  0  0  0  0
   -6.5646    1.7792   -2.8937 N   0  0  0  0  0  0  0  0  0  0  0  0
   -7.3808    1.3812   -1.8909 C   0  0  0  0  0  0  0  0  0  0  0  0
   -8.7237    1.0944   -1.8590 C   0  0  0  0  0  0  0  0  0  0  0  0
   -9.2879    0.7274   -0.6581 C   0  0  0  0  0  0  0  0  0  0  0  0
   -8.5283    0.6473    0.4922 C   0  0  0  0  0  0  0  0  0  0  0  0
   -7.1893    0.9347    0.4453 C   0  0  0  0  0  0  0  0  0  0  0  0
   -6.5704    1.3129   -0.7499 C   0  0  0  0  0  0  0  0  0  0  0  0
   -4.2446   -0.6401    0.2717 N   0  0  0  0  0  0  0  0  0  0  0  0
   -4.5878   -1.7662   -0.5103 C   0  0  0  0  0  0  0  0  0  0  0  0
   -4.0779   -1.8696   -1.6527 O   0  0  0  0  0  0  0  0  0  0  0  0
   -5.4484   -2.7550   -0.0994 O   0  0  0  0  0  0  0  0  0  0  0  0
   -5.8373   -3.8880   -0.8016 C   0  0  0  0  0  0  0  0  0  0  0  0
   -4.6054   -4.7359   -1.0916 C   0  0  0  0  0  0  0  0  0  0  0  0
   -6.7948   -4.7603   -0.0173 C   0  0  0  0  0  0  0  0  0  0  0  0
   -6.4446   -3.5621   -2.1548 C   0  0  0  0  0  0  0  0  0  0  0  0
    1.0882    1.8326    0.7062 C   0  0  0  0  0  0  0  0  0  0  0  0
    0.8670    1.4001   -0.5160 O   0  0  0  0  0  0  0  0  0  0  0  0
    2.4085    2.1534    0.9480 N   0  0  0  0  0  0  0  0  0  0  0  0
    3.4852    2.0327   -0.1182 C   0  0  1  0  0  0  0  0  0  0  0  0
    3.9295    3.4301   -0.2738 C   0  0  0  0  0  0  0  0  0  0  0  0
    4.9693    3.8242   -1.2297 C   0  0  0  0  0  0  0  0  0  0  0  0
    4.6748    3.4675   -2.6748 C   0  0  0  0  0  0  0  0  0  0  0  0
    6.3842    3.6368   -0.8653 C   0  0  0  0  0  0  0  0  0  0  0  0
    4.3731    1.0153    0.3538 C   0  0  0  0  0  0  0  0  0  0  0  0
    4.2281    0.5526    1.5399 O   0  0  0  0  0  0  0  0  0  0  0  0
    5.4231    0.4302   -0.3674 N   0  0  0  0  0  0  0  0  0  0  0  0
    6.2578   -0.6396    0.1786 C   0  0  1  0  0  0  0  0  0  0  0  0
    6.0795   -1.8864   -0.6631 C   0  0  0  0  0  0  0  0  0  0  0  0
    6.8484   -3.0576   -0.2488 C   0  0  0  0  0  0  0  0  0  0  0  0
    6.4026   -3.9477    0.7178 C   0  0  0  0  0  0  0  0  0  0  0  0
    7.0657   -5.0651    1.1140 C   0  0  0  0  0  0  0  0  0  0  0  0
    8.2714   -5.3586    0.5303 C   0  0  0  0  0  0  0  0  0  0  0  0
    8.7725   -4.5123   -0.4393 C   0  0  0  0  0  0  0  0  0  0  0  0
    8.0697   -3.3664   -0.8324 C   0  0  0  0  0  0  0  0  0  0  0  0
    7.6246   -0.2855    0.4944 C   0  0  0  0  0  0  0  0  0  0  0  0
    8.4483   -1.1822    1.1588 O   0  0  0  0  0  0  0  0  0  0  0  0
    8.1385    0.8125    0.2076 O   0  0  0  0  0  0  0  0  0  0  0  0
   -2.8177    3.3352    4.1889 H   0  0  0  0  0  0  0  0  0  0  0  0
   -2.4083    3.1330    2.4778 H   0  0  0  0  0  0  0  0  0  0  0  0
   -3.1135    1.7463    3.4893 H   0  0  0  0  0  0  0  0  0  0  0  0
   -0.5390    3.2718    4.1733 H   0  0  0  0  0  0  0  0  0  0  0  0
   -1.0576    1.7346    4.8462 H   0  0  0  0  0  0  0  0  0  0  0  0
   -0.4518    0.4778    3.0387 H   0  0  0  0  0  0  0  0  0  0  0  0
    1.9530    0.7648    3.2095 H   0  0  0  0  0  0  0  0  0  0  0  0
    1.0537    1.0385    4.6900 H   0  0  0  0  0  0  0  0  0  0  0  0
    1.6884    2.4779    3.9099 H   0  0  0  0  0  0  0  0  0  0  0  0
   -0.2575    3.0925    1.6157 H   0  0  0  0  0  0  0  0  0  0  0  0
   -1.4731    2.2807   -0.0190 H   0  0  0  0  0  0  0  0  0  0  0  0
   -2.9181    0.1480   -1.0729 H   0  0  0  0  0  0  0  0  0  0  0  0
   -4.4137    2.1191    0.7722 H   0  0  0  0  0  0  0  0  0  0  0  0
   -3.3724    2.4763   -0.6059 H   0  0  0  0  0  0  0  0  0  0  0  0
   -4.4328    2.2799   -3.0075 H   0  0  0  0  0  0  0  0  0  0  0  0
   -6.9125    1.9114   -3.8701 H   0  0  0  0  0  0  0  0  0  0  0  0
   -9.3378    1.1465   -2.7509 H   0  0  0  0  0  0  0  0  0  0  0  0
  -10.3569    0.4872   -0.5606 H   0  0  0  0  0  0  0  0  0  0  0  0
   -9.0191    0.3488    1.4246 H   0  0  0  0  0  0  0  0  0  0  0  0
   -6.5862    0.8718    1.3505 H   0  0  0  0  0  0  0  0  0  0  0  0
   -4.6813   -0.6160    1.2362 H   0  0  0  0  0  0  0  0  0  0  0  0
   -4.0434   -4.4256   -1.9737 H   0  0  0  0  0  0  0  0  0  0  0  0
   -4.9808   -5.7825   -1.2451 H   0  0  0  0  0  0  0  0  0  0  0  0
   -3.9711   -4.8088   -0.1629 H   0  0  0  0  0  0  0  0  0  0  0  0
   -6.7453   -5.7985   -0.3572 H   0  0  0  0  0  0  0  0  0  0  0  0
   -6.5284   -4.6973    1.0679 H   0  0  0  0  0  0  0  0  0  0  0  0
   -7.8414   -4.3590   -0.1051 H   0  0  0  0  0  0  0  0  0  0  0  0
   -7.0093   -4.4536   -2.5495 H   0  0  0  0  0  0  0  0  0  0  0  0
   -7.2110   -2.7677   -2.0203 H   0  0  0  0  0  0  0  0  0  0  0  0
   -5.7030   -3.3160   -2.9269 H   0  0  0  0  0  0  0  0  0  0  0  0
    2.7718    2.5066    1.8285 H   0  0  0  0  0  0  0  0  0  0  0  0
    2.9392    1.6899   -1.0433 H   0  0  0  0  0  0  0  0  0  0  0  0
    4.1650    3.9147    0.7208 H   0  0  0  0  0  0  0  0  0  0  0  0
    2.9849    4.0174   -0.5691 H   0  0  0  0  0  0  0  0  0  0  0  0
    4.8501    4.9983   -1.2729 H   0  0  0  0  0  0  0  0  0  0  0  0
    3.5891    3.5550   -2.8911 H   0  0  0  0  0  0  0  0  0  0  0  0
    5.2044    4.1870   -3.3410 H   0  0  0  0  0  0  0  0  0  0  0  0
    5.0770    2.4630   -2.8913 H   0  0  0  0  0  0  0  0  0  0  0  0
    6.9481    4.5792   -0.9622 H   0  0  0  0  0  0  0  0  0  0  0  0
    6.4688    3.3688    0.2274 H   0  0  0  0  0  0  0  0  0  0  0  0
    6.8972    2.8427   -1.4856 H   0  0  0  0  0  0  0  0  0  0  0  0
    5.6272    0.7350   -1.3345 H   0  0  0  0  0  0  0  0  0  0  0  0
    5.7660   -0.9004    1.1695 H   0  0  0  0  0  0  0  0  0  0  0  0
    6.4683   -1.5934   -1.6928 H   0  0  0  0  0  0  0  0  0  0  0  0
    5.0094   -2.1029   -0.8495 H   0  0  0  0  0  0  0  0  0  0  0  0
    5.4545   -3.7172    1.1822 H   0  0  0  0  0  0  0  0  0  0  0  0
    6.6702   -5.7344    1.8805 H   0  0  0  0  0  0  0  0  0  0  0  0
    8.8174   -6.2282    0.8238 H   0  0  0  0  0  0  0  0  0  0  0  0
    9.7151   -4.7518   -0.8825 H   0  0  0  0  0  0  0  0  0  0  0  0
    8.4568   -2.7190   -1.5827 H   0  0  0  0  0  0  0  0  0  0  0  0
    8.1150   -1.6741    1.9846 H   0  0  0  0  0  0  0  0  0  0  0  0
  1  2  1  0
  2  3  1  0
  3  4  1  0
  3  5  1  0
  5  6  1  0
  6  7  1  0
  7  8  2  0
  7  9  1  0
  9 10  1  0
 10 11  1  0
 11 12  2  0
 12 13  1  0
 13 14  1  0
 14 15  2  0
 15 16  1  0
 16 17  2  0
 17 18  1  0
 18 19  2  0
  9 20  1  0
 20 21  1  0
 21 22  2  0
 21 23  1  0
 23 24  1  0
 24 25  1  0
 24 26  1  0
 24 27  1  0
  5 28  1  0
 28 29  2  0
 28 30  1  0
 30 31  1  0
 31 32  1  0
 32 33  1  0
 33 34  1  0
 33 35  1  0
 31 36  1  0
 36 37  2  0
 36 38  1  0
 38 39  1  0
 39 40  1  0
 40 41  1  0
 41 42  2  0
 42 43  1  0
 43 44  2  0
 44 45  1  0
 45 46  2  0
 39 47  1  0
 47 48  1  0
 47 49  2  0
 19 11  1  0
 46 41  1  0
 19 14  1  0
  1 50  1  0
  1 51  1  0
  1 52  1  0
  2 53  1  0
  2 54  1  0
  3 55  1  6
  4 56  1  0
  4 57  1  0
  4 58  1  0
  5 59  1  1
  6 60  1  0
  9 61  1  6
 10 62  1  0
 10 63  1  0
 12 64  1  0
 13 65  1  0
 15 66  1  0
 16 67  1  0
 17 68  1  0
 18 69  1  0
 20 70  1  0
 25 71  1  0
 25 72  1  0
 25 73  1  0
 26 74  1  0
 26 75  1  0
 26 76  1  0
 27 77  1  0
 27 78  1  0
 27 79  1  0
 30 80  1  0
 31 81  1  6
 32 82  1  0
 32 83  1  0
 33 84  1  0
 34 85  1  0
 34 86  1  0
 34 87  1  0
 35 88  1  0
 35 89  1  0
 35 90  1  0
 38 91  1  0
 39 92  1  1
 40 93  1  0
 40 94  1  0
 42 95  1  0
 43 96  1  0
 44 97  1  0
 45 98  1  0
 46 99  1  0
 48100  1  0
M  END
$$$$
[H]OC(=O)C([H])(C([H])([H])c1c([H])c([H])c([H])c([H])c1[H])P(=O)(O[H])N([H])[C@]([H])(C(=O)O[H])C([H])([H])C([H])(C([H])([H])[H])C([H])([H])[H]
     RDKit          3D

 45 45  0  0  0  0  0  0  0  0999 V2000
   -3.3660    1.9912    0.8825 C   0  0  0  0  0  0  0  0  0  0  0  0
   -3.7599    0.9686   -0.1617 C   0  0  0  0  0  0  0  0  0  0  0  0
   -4.7513    1.6709   -1.0795 C   0  0  0  0  0  0  0  0  0  0  0  0
   -2.5839    0.4291   -0.9319 C   0  0  0  0  0  0  0  0  0  0  0  0
   -1.6371   -0.2316    0.0474 C   0  0  2  0  0  0  0  0  0  0  0  0
   -0.4736   -0.7681   -0.6366 N   0  0  0  0  0  0  0  0  0  0  0  0
    0.6515   -1.2785    0.5973 P   0  0  0  0  0  0  0  0  0  0  0  0
   -0.0264   -2.5751    1.4488 O   0  0  0  0  0  0  0  0  0  0  0  0
    0.8586   -0.1407    1.5751 O   0  0  0  0  0  0  0  0  0  0  0  0
    2.2102   -1.8375   -0.0765 C   0  0  0  0  0  0  0  0  0  0  0  0
    2.9254   -0.8886   -0.9626 C   0  0  0  0  0  0  0  0  0  0  0  0
    3.3037    0.3984   -0.3440 C   0  0  0  0  0  0  0  0  0  0  0  0
    2.5034    1.5173   -0.4114 C   0  0  0  0  0  0  0  0  0  0  0  0
    2.8973    2.6980    0.1858 C   0  0  0  0  0  0  0  0  0  0  0  0
    4.1130    2.7165    0.8477 C   0  0  0  0  0  0  0  0  0  0  0  0
    4.9213    1.6049    0.9216 C   0  0  0  0  0  0  0  0  0  0  0  0
    4.5299    0.4301    0.3277 C   0  0  0  0  0  0  0  0  0  0  0  0
    2.0403   -3.1728   -0.7219 C   0  0  0  0  0  0  0  0  0  0  0  0
    1.1371   -3.2624   -1.7685 O   0  0  0  0  0  0  0  0  0  0  0  0
    2.6564   -4.2083   -0.3805 O   0  0  0  0  0  0  0  0  0  0  0  0
   -2.4063   -1.3869    0.6241 C   0  0  0  0  0  0  0  0  0  0  0  0
   -3.0651   -1.2562    1.8285 O   0  0  0  0  0  0  0  0  0  0  0  0
   -2.4075   -2.4574   -0.0480 O   0  0  0  0  0  0  0  0  0  0  0  0
   -2.9403    2.9017    0.4131 H   0  0  0  0  0  0  0  0  0  0  0  0
   -4.3390    2.3231    1.3485 H   0  0  0  0  0  0  0  0  0  0  0  0
   -2.7433    1.6123    1.6889 H   0  0  0  0  0  0  0  0  0  0  0  0
   -4.3195    0.1566    0.3422 H   0  0  0  0  0  0  0  0  0  0  0  0
   -5.7195    1.7289   -0.5017 H   0  0  0  0  0  0  0  0  0  0  0  0
   -4.9780    1.1011   -1.9786 H   0  0  0  0  0  0  0  0  0  0  0  0
   -4.4392    2.7208   -1.2410 H   0  0  0  0  0  0  0  0  0  0  0  0
   -2.1109    1.2530   -1.4944 H   0  0  0  0  0  0  0  0  0  0  0  0
   -2.9880   -0.3344   -1.6340 H   0  0  0  0  0  0  0  0  0  0  0  0
   -1.3130    0.4762    0.8005 H   0  0  0  0  0  0  0  0  0  0  0  0
   -0.6868   -1.5484   -1.2796 H   0  0  0  0  0  0  0  0  0  0  0  0
    0.1689   -3.3792    0.8941 H   0  0  0  0  0  0  0  0  0  0  0  0
    2.8812   -2.0320    0.7982 H   0  0  0  0  0  0  0  0  0  0  0  0
    2.3532   -0.7207   -1.9190 H   0  0  0  0  0  0  0  0  0  0  0  0
    3.8647   -1.4120   -1.3074 H   0  0  0  0  0  0  0  0  0  0  0  0
    1.5423    1.4632   -0.9518 H   0  0  0  0  0  0  0  0  0  0  0  0
    2.2704    3.5879    0.1373 H   0  0  0  0  0  0  0  0  0  0  0  0
    4.4323    3.6370    1.3198 H   0  0  0  0  0  0  0  0  0  0  0  0
    5.8840    1.6275    1.4484 H   0  0  0  0  0  0  0  0  0  0  0  0
    5.1484   -0.4662    0.3685 H   0  0  0  0  0  0  0  0  0  0  0  0
    0.3850   -3.9546   -1.6463 H   0  0  0  0  0  0  0  0  0  0  0  0
   -2.6241   -1.7028    2.6309 H   0  0  0  0  0  0  0  0  0  0  0  0
  1  2  1  0
  2  3  1  0
  2  4  1  0
  4  5  1  0
  5  6  1  0
  6  7  1  0
  7  8  1  0
  7  9  2  0
  7 10  1  0
 10 11  1  0
 11 12  1  0
 12 13  2  0
 13 14  1  0
 14 15  2  0
 15 16  1  0
 16 17  2  0
 10 18  1  0
 18 19  1  0
 18 20  2  0
  5 21  1  0
 21 22  1  0
 21 23  2  0
 17 12  1  0
  1 24  1  0
  1 25  1  0
  1 26  1  0
  2 27  1  0
  3 28  1  0
  3 29  1  0
  3 30  1  0
  4 31  1  0
  4 32  1  0
  5 33  1  1
  6 34  1  0
  8 35  1  0
 10 36  1  0
 11 37  1  0
 11 38  1  0
 13 39  1  0
 14 40  1  0
 15 41  1  0
 16 42  1  0
 17 43  1  0
 19 44  1  0
 22 45  1  0
M  END
$$$$
[H]OC([H])([H])C([H])(N([H])C(=O)[C@@]([H])(N([H])C(=O)[C@@]([H])(N([H])C(=O)[C@@]([H])(N([H])C(=O)[C@@]([H])(N([H])C(=O)[C@@]([H])(N([H])C(=O)[C@@]([H])(N([H])C(=O)[C@@]([H])(N([H])C(=O)C([H])([H])[H])C([H])([H])O[H])C([H])([H])O[H])C([H])([H])O[H])C([H])([H])O[H])C([H])([H])C([H])([H])C(=O)N([H])[H])C([H])([H])C([H])(C([H])([H])[H])C([H])([H])[H])C([H])([H])O[H])C([H])([H])O[H]
     RDKit          3D

111110  0  0  0  0  0  0  0  0999 V2000
   -8.6470   -3.9397   -0.0344 C   0  0  0  0  0  0  0  0  0  0  0  0
   -7.3677   -3.0833   -0.0507 C   0  0  0  0  0  0  0  0  0  0  0  0
   -6.3047   -4.0295    0.5336 C   0  0  0  0  0  0  0  0  0  0  0  0
   -7.1011   -2.7522   -1.4755 C   0  0  0  0  0  0  0  0  0  0  0  0
   -5.9190   -1.9083   -1.7683 C   0  0  2  0  0  0  0  0  0  0  0  0
   -4.6483   -2.3957   -1.3864 N   0  0  0  0  0  0  0  0  0  0  0  0
   -3.4916   -1.7897   -0.8886 C   0  0  0  0  0  0  0  0  0  0  0  0
   -3.3480   -0.5468   -0.6263 O   0  0  0  0  0  0  0  0  0  0  0  0
   -2.2109   -2.5500   -0.5858 C   0  0  2  0  0  0  0  0  0  0  0  0
   -2.4491   -3.8091    0.1702 C   0  0  0  0  0  0  0  0  0  0  0  0
   -1.1533   -4.5446    0.4586 C   0  0  0  0  0  0  0  0  0  0  0  0
   -0.4146   -4.9617   -0.7296 C   0  0  0  0  0  0  0  0  0  0  0  0
    0.9532   -5.3536   -0.5712 N   0  0  0  0  0  0  0  0  0  0  0  0
   -0.8892   -5.0065   -1.9035 O   0  0  0  0  0  0  0  0  0  0  0  0
   -1.2563   -1.6792    0.0358 N   0  0  0  0  0  0  0  0  0  0  0  0
   -0.0500   -1.2300   -0.5309 C   0  0  0  0  0  0  0  0  0  0  0  0
    0.3630   -1.5414   -1.6625 O   0  0  0  0  0  0  0  0  0  0  0  0
    0.8169   -0.2995    0.2817 C   0  0  2  0  0  0  0  0  0  0  0  0
    0.0312    0.9257    0.6682 C   0  0  0  0  0  0  0  0  0  0  0  0
    0.8522    1.7382    1.4394 O   0  0  0  0  0  0  0  0  0  0  0  0
    1.9906    0.0564   -0.4805 N   0  0  0  0  0  0  0  0  0  0  0  0
    3.2948   -0.3137   -0.0599 C   0  0  0  0  0  0  0  0  0  0  0  0
    3.4807   -0.9656    0.9926 O   0  0  0  0  0  0  0  0  0  0  0  0
    4.4526    0.0785   -0.8842 C   0  0  2  0  0  0  0  0  0  0  0  0
    4.2607   -0.5454   -2.2646 C   0  0  0  0  0  0  0  0  0  0  0  0
    4.1335   -1.9310   -2.1532 O   0  0  0  0  0  0  0  0  0  0  0  0
    5.6556   -0.4627   -0.2832 N   0  0  0  0  0  0  0  0  0  0  0  0
    6.6708    0.4058    0.1610 C   0  0  0  0  0  0  0  0  0  0  0  0
    6.4680    1.6592    0.0072 O   0  0  0  0  0  0  0  0  0  0  0  0
    7.9060   -0.1320    0.7688 C   0  0  2  0  0  0  0  0  0  0  0  0
    7.6252   -0.8220    2.0711 C   0  0  0  0  0  0  0  0  0  0  0  0
    6.8414   -1.9327    1.9212 O   0  0  0  0  0  0  0  0  0  0  0  0
    8.7553    1.0469    1.0161 N   0  0  0  0  0  0  0  0  0  0  0  0
    9.8975    1.2132    0.2510 C   0  0  0  0  0  0  0  0  0  0  0  0
   10.1921    0.3571   -0.6470 O   0  0  0  0  0  0  0  0  0  0  0  0
   10.8190    2.3513    0.4132 C   0  0  2  0  0  0  0  0  0  0  0  0
   10.1220    3.4985    1.0830 C   0  0  0  0  0  0  0  0  0  0  0  0
    9.1008    3.9628    0.2735 O   0  0  0  0  0  0  0  0  0  0  0  0
   11.4256    2.7146   -0.8613 N   0  0  0  0  0  0  0  0  0  0  0  0
   12.8141    2.5491   -1.0301 C   0  0  0  0  0  0  0  0  0  0  0  0
   13.4094    2.9361   -2.3443 C   0  0  0  0  0  0  0  0  0  0  0  0
   13.5413    2.0999   -0.1318 O   0  0  0  0  0  0  0  0  0  0  0  0
   -6.1303   -0.4726   -1.5910 C   0  0  0  0  0  0  0  0  0  0  0  0
   -5.2315    0.3328   -1.9762 O   0  0  0  0  0  0  0  0  0  0  0  0
   -7.2614    0.1599   -1.0160 N   0  0  0  0  0  0  0  0  0  0  0  0
   -7.3482    1.6030   -0.8809 C   0  0  1  0  0  0  0  0  0  0  0  0
   -8.4805    2.0620   -1.7777 C   0  0  0  0  0  0  0  0  0  0  0  0
   -8.2514    1.7307   -3.1088 O   0  0  0  0  0  0  0  0  0  0  0  0
   -7.6195    2.0400    0.5037 C   0  0  0  0  0  0  0  0  0  0  0  0
   -8.3681    1.3644    1.2477 O   0  0  0  0  0  0  0  0  0  0  0  0
   -7.0357    3.2141    0.9921 N   0  0  0  0  0  0  0  0  0  0  0  0
   -7.1910    3.7804    2.3038 C   0  0  0  0  0  0  0  0  0  0  0  0
   -5.9521    3.6187    3.1651 C   0  0  0  0  0  0  0  0  0  0  0  0
   -4.8247    4.2066    2.6483 O   0  0  0  0  0  0  0  0  0  0  0  0
   -7.5570    5.2449    2.2564 C   0  0  0  0  0  0  0  0  0  0  0  0
   -6.5006    5.8956    1.5961 O   0  0  0  0  0  0  0  0  0  0  0  0
   -8.6755   -4.6674   -0.8425 H   0  0  0  0  0  0  0  0  0  0  0  0
   -9.5355   -3.2865   -0.1035 H   0  0  0  0  0  0  0  0  0  0  0  0
   -8.7018   -4.4740    0.9563 H   0  0  0  0  0  0  0  0  0  0  0  0
   -7.4821   -2.2582    0.6447 H   0  0  0  0  0  0  0  0  0  0  0  0
   -5.4490   -3.4770    0.9376 H   0  0  0  0  0  0  0  0  0  0  0  0
   -6.0744   -4.7595   -0.2610 H   0  0  0  0  0  0  0  0  0  0  0  0
   -6.7196   -4.6285    1.3750 H   0  0  0  0  0  0  0  0  0  0  0  0
   -6.9120   -3.7469   -1.9930 H   0  0  0  0  0  0  0  0  0  0  0  0
   -8.0017   -2.3656   -2.0047 H   0  0  0  0  0  0  0  0  0  0  0  0
   -5.8292   -1.9218   -2.9591 H   0  0  0  0  0  0  0  0  0  0  0  0
   -4.4958   -3.4880   -1.4979 H   0  0  0  0  0  0  0  0  0  0  0  0
   -1.8284   -2.8076   -1.6005 H   0  0  0  0  0  0  0  0  0  0  0  0
   -3.1015   -4.4723   -0.4392 H   0  0  0  0  0  0  0  0  0  0  0  0
   -2.9617   -3.6616    1.1407 H   0  0  0  0  0  0  0  0  0  0  0  0
   -1.4527   -5.4698    1.0033 H   0  0  0  0  0  0  0  0  0  0  0  0
   -0.5391   -3.9681    1.1892 H   0  0  0  0  0  0  0  0  0  0  0  0
    1.1916   -6.0372    0.1492 H   0  0  0  0  0  0  0  0  0  0  0  0
    1.6203   -4.8870   -1.2328 H   0  0  0  0  0  0  0  0  0  0  0  0
   -1.5004   -1.3562    1.0070 H   0  0  0  0  0  0  0  0  0  0  0  0
    1.1332   -0.8198    1.1982 H   0  0  0  0  0  0  0  0  0  0  0  0
   -0.8327    0.6370    1.2979 H   0  0  0  0  0  0  0  0  0  0  0  0
   -0.3257    1.4925   -0.2248 H   0  0  0  0  0  0  0  0  0  0  0  0
    1.0498    2.5956    1.0037 H   0  0  0  0  0  0  0  0  0  0  0  0
    1.9004    0.5995   -1.3688 H   0  0  0  0  0  0  0  0  0  0  0  0
    4.5056    1.1915   -0.9638 H   0  0  0  0  0  0  0  0  0  0  0  0
    5.0828   -0.2560   -2.9306 H   0  0  0  0  0  0  0  0  0  0  0  0
    3.3257   -0.1696   -2.7318 H   0  0  0  0  0  0  0  0  0  0  0  0
    3.8361   -2.1897   -1.2522 H   0  0  0  0  0  0  0  0  0  0  0  0
    5.7864   -1.4907   -0.1818 H   0  0  0  0  0  0  0  0  0  0  0  0
    8.4243   -0.8378    0.0870 H   0  0  0  0  0  0  0  0  0  0  0  0
    7.1500   -0.1211    2.7975 H   0  0  0  0  0  0  0  0  0  0  0  0
    8.5994   -1.1615    2.5158 H   0  0  0  0  0  0  0  0  0  0  0  0
    7.1703   -2.7064    2.4731 H   0  0  0  0  0  0  0  0  0  0  0  0
    8.4229    1.6744    1.7580 H   0  0  0  0  0  0  0  0  0  0  0  0
   11.6202    1.9863    1.1167 H   0  0  0  0  0  0  0  0  0  0  0  0
   10.8522    4.3269    1.3071 H   0  0  0  0  0  0  0  0  0  0  0  0
    9.7090    3.1480    2.0424 H   0  0  0  0  0  0  0  0  0  0  0  0
    8.9208    4.9017    0.5344 H   0  0  0  0  0  0  0  0  0  0  0  0
   10.8209    3.0861   -1.6133 H   0  0  0  0  0  0  0  0  0  0  0  0
   14.3837    3.4835   -2.2104 H   0  0  0  0  0  0  0  0  0  0  0  0
   13.5702    2.0931   -3.0210 H   0  0  0  0  0  0  0  0  0  0  0  0
   12.7350    3.6759   -2.8440 H   0  0  0  0  0  0  0  0  0  0  0  0
   -8.0478   -0.4124   -0.6882 H   0  0  0  0  0  0  0  0  0  0  0  0
   -6.4094    2.0565   -1.2893 H   0  0  0  0  0  0  0  0  0  0  0  0
   -8.7320    3.1479   -1.6343 H   0  0  0  0  0  0  0  0  0  0  0  0
   -9.4413    1.5392   -1.4842 H   0  0  0  0  0  0  0  0  0  0  0  0
   -9.1296    1.6065   -3.5413 H   0  0  0  0  0  0  0  0  0  0  0  0
   -6.4051    3.7695    0.3383 H   0  0  0  0  0  0  0  0  0  0  0  0
   -7.9884    3.2122    2.8426 H   0  0  0  0  0  0  0  0  0  0  0  0
   -6.2023    4.1662    4.1239 H   0  0  0  0  0  0  0  0  0  0  0  0
   -5.7956    2.5604    3.4822 H   0  0  0  0  0  0  0  0  0  0  0  0
   -4.0445    3.6171    2.8348 H   0  0  0  0  0  0  0  0  0  0  0  0
   -7.6415    5.6783    3.2717 H   0  0  0  0  0  0  0  0  0  0  0  0
   -8.5208    5.4283    1.7353 H   0  0  0  0  0  0  0  0  0  0  0  0
   -5.9041    6.3766    2.1951 H   0  0  0  0  0  0  0  0  0  0  0  0
  1  2  1  0
  2  3  1  0
  2  4  1  0
  4  5  1  0
  5  6  1  0
  6  7  1  0
  7  8  2  0
  7  9  1  0
  9 10  1  0
 10 11  1  0
 11 12  1  0
 12 13  1  0
 12 14  2  0
  9 15  1  0
 15 16  1  0
 16 17  2  0
 16 18  1  0
 18 19  1  0
 19 20  1  0
 18 21  1  0
 21 22  1  0
 22 23  2  0
 22 24  1  0
 24 25  1  0
 25 26  1  0
 24 27  1  0
 27 28  1  0
 28 29  2  0
 28 30  1  0
 30 31  1  0
 31 32  1  0
 30 33  1  0
 33 34  1  0
 34 35  2  0
 34 36  1  0
 36 37  1  0
 37 38  1  0
 36 39  1  0
 39 40  1  0
 40 41  1  0
 40 42  2  0
  5 43  1  0
 43 44  2  0
 43 45  1  0
 45 46  1  0
 46 47  1  0
 47 48  1  0
 46 49  1  0
 49 50  2  0
 49 51  1  0
 51 52  1  0
 52 53  1  0
 53 54  1  0
 52 55  1  0
 55 56  1  0
  1 57  1  0
  1 58  1  0
  1 59  1  0
  2 60  1  0
  3 61  1  0
  3 62  1  0
  3 63  1  0
  4 64  1  0
  4 65  1  0
  5 66  1  6
  6 67  1  0
  9 68  1  6
 10 69  1  0
 10 70  1  0
 11 71  1  0
 11 72  1  0
 13 73  1  0
 13 74  1  0
 15 75  1  0
 18 76  1  1
 19 77  1  0
 19 78  1  0
 20 79  1  0
 21 80  1  0
 24 81  1  6
 25 82  1  0
 25 83  1  0
 26 84  1  0
 27 85  1  0
 30 86  1  6
 31 87  1  0
 31 88  1  0
 32 89  1  0
 33 90  1  0
 36 91  1  1
 37 92  1  0
 37 93  1  0
 38 94  1  0
 39 95  1  0
 41 96  1  0
 41 97  1  0
 41 98  1  0
 45 99  1  0
 46100  1  6
 47101  1  0
 47102  1  0
 48103  1  0
 51104  1  0
 52105  1  0
 53106  1  0
 53107  1  0
 54108  1  0
 55109  1  0
 55110  1  0
 56111  1  0
M  END
$$$$
[H]Oc1c([H])c([H])c(C([H])([H])[C@@]([H])(C(=O)N([H])[H])N([H])C(=O)[C@@]2([H])N(C(=O)[C@@]([H])(N([H])C(=O)[C@@]([H])(N([H])[H])C([H])([H])c3c([H])c([H])c([H])c([H])c3[H])C([H])([H])[H])C([H])([H])C([H])([H])C2([H])[H])c([H])c1[H]
     RDKit          3D

 69 71  0  0  0  0  0  0  0  0999 V2000
    1.4968   -2.3994   -1.3443 C   0  0  0  0  0  0  0  0  0  0  0  0
    1.5957   -1.5233   -0.1071 C   0  0  2  0  0  0  0  0  0  0  0  0
    2.9730   -1.0382   -0.0840 N   0  0  0  0  0  0  0  0  0  0  0  0
    3.2772    0.3487   -0.1461 C   0  0  0  0  0  0  0  0  0  0  0  0
    2.3159    1.1511   -0.2227 O   0  0  0  0  0  0  0  0  0  0  0  0
    4.6745    0.8438   -0.1217 C   0  0  1  0  0  0  0  0  0  0  0  0
    5.6367   -0.2139   -0.0328 N   0  0  0  0  0  0  0  0  0  0  0  0
    4.9009    1.7493   -1.3064 C   0  0  0  0  0  0  0  0  0  0  0  0
    6.2804    2.2844   -1.3488 C   0  0  0  0  0  0  0  0  0  0  0  0
    6.5887    3.4703   -0.7233 C   0  0  0  0  0  0  0  0  0  0  0  0
    7.8645    4.0074   -0.7354 C   0  0  0  0  0  0  0  0  0  0  0  0
    8.8535    3.3347   -1.3929 C   0  0  0  0  0  0  0  0  0  0  0  0
    8.5672    2.1443   -2.0269 C   0  0  0  0  0  0  0  0  0  0  0  0
    7.2757    1.6051   -2.0119 C   0  0  0  0  0  0  0  0  0  0  0  0
    1.3192   -2.2473    1.1416 C   0  0  0  0  0  0  0  0  0  0  0  0
    2.2587   -2.3754    1.9952 O   0  0  0  0  0  0  0  0  0  0  0  0
    0.0694   -2.8150    1.4627 N   0  0  0  0  0  0  0  0  0  0  0  0
   -0.2180   -3.5427    2.7087 C   0  0  0  0  0  0  0  0  0  0  0  0
   -1.2538   -4.5620    2.3466 C   0  0  0  0  0  0  0  0  0  0  0  0
   -1.8497   -4.0946    1.0431 C   0  0  0  0  0  0  0  0  0  0  0  0
   -1.1472   -2.8092    0.7011 C   0  0  1  0  0  0  0  0  0  0  0  0
   -2.0228   -1.6721    1.0024 C   0  0  0  0  0  0  0  0  0  0  0  0
   -1.6674   -0.8286    1.8557 O   0  0  0  0  0  0  0  0  0  0  0  0
   -3.2544   -1.5150    0.3475 N   0  0  0  0  0  0  0  0  0  0  0  0
   -4.1734   -0.3890    0.6105 C   0  0  1  0  0  0  0  0  0  0  0  0
   -4.2873    0.3195   -0.7087 C   0  0  0  0  0  0  0  0  0  0  0  0
   -5.1562    1.4889   -0.6870 C   0  0  0  0  0  0  0  0  0  0  0  0
   -6.4798    1.4528   -1.0601 C   0  0  0  0  0  0  0  0  0  0  0  0
   -7.2575    2.5853   -1.0199 C   0  0  0  0  0  0  0  0  0  0  0  0
   -6.7595    3.7932   -0.6109 C   0  0  0  0  0  0  0  0  0  0  0  0
   -7.5484    4.9338   -0.5718 O   0  0  0  0  0  0  0  0  0  0  0  0
   -5.4414    3.8425   -0.2364 C   0  0  0  0  0  0  0  0  0  0  0  0
   -4.6602    2.7205   -0.2733 C   0  0  0  0  0  0  0  0  0  0  0  0
   -5.4229   -1.0052    1.0869 C   0  0  0  0  0  0  0  0  0  0  0  0
   -6.5489   -0.2729    1.5364 N   0  0  0  0  0  0  0  0  0  0  0  0
   -5.5709   -2.2777    1.1283 O   0  0  0  0  0  0  0  0  0  0  0  0
    0.6810   -2.0033   -1.9748 H   0  0  0  0  0  0  0  0  0  0  0  0
    1.3150   -3.4678   -1.0572 H   0  0  0  0  0  0  0  0  0  0  0  0
    2.4076   -2.3964   -1.9487 H   0  0  0  0  0  0  0  0  0  0  0  0
    0.9427   -0.6426   -0.2027 H   0  0  0  0  0  0  0  0  0  0  0  0
    3.7701   -1.7164   -0.0203 H   0  0  0  0  0  0  0  0  0  0  0  0
    4.7807    1.4670    0.8014 H   0  0  0  0  0  0  0  0  0  0  0  0
    5.4622   -0.8869   -0.8128 H   0  0  0  0  0  0  0  0  0  0  0  0
    5.5109   -0.7351    0.8569 H   0  0  0  0  0  0  0  0  0  0  0  0
    4.7059    1.2134   -2.2599 H   0  0  0  0  0  0  0  0  0  0  0  0
    4.1557    2.5736   -1.2529 H   0  0  0  0  0  0  0  0  0  0  0  0
    5.8309    4.0316   -0.1923 H   0  0  0  0  0  0  0  0  0  0  0  0
    8.1191    4.9414   -0.2455 H   0  0  0  0  0  0  0  0  0  0  0  0
    9.8689    3.7613   -1.4029 H   0  0  0  0  0  0  0  0  0  0  0  0
    9.3562    1.6063   -2.5519 H   0  0  0  0  0  0  0  0  0  0  0  0
    7.1092    0.6686   -2.5264 H   0  0  0  0  0  0  0  0  0  0  0  0
    0.7006   -4.0850    3.0394 H   0  0  0  0  0  0  0  0  0  0  0  0
   -0.5101   -2.8711    3.5243 H   0  0  0  0  0  0  0  0  0  0  0  0
   -2.0158   -4.5787    3.1757 H   0  0  0  0  0  0  0  0  0  0  0  0
   -0.8503   -5.5940    2.2767 H   0  0  0  0  0  0  0  0  0  0  0  0
   -1.6471   -4.8752    0.2822 H   0  0  0  0  0  0  0  0  0  0  0  0
   -2.9509   -3.9254    1.1310 H   0  0  0  0  0  0  0  0  0  0  0  0
   -0.9266   -2.8277   -0.3989 H   0  0  0  0  0  0  0  0  0  0  0  0
   -3.5619   -2.2028   -0.3576 H   0  0  0  0  0  0  0  0  0  0  0  0
   -3.7338    0.2682    1.3935 H   0  0  0  0  0  0  0  0  0  0  0  0
   -3.2614    0.5929   -1.0683 H   0  0  0  0  0  0  0  0  0  0  0  0
   -4.6527   -0.4273   -1.4578 H   0  0  0  0  0  0  0  0  0  0  0  0
   -6.8829    0.4996   -1.3864 H   0  0  0  0  0  0  0  0  0  0  0  0
   -8.2942    2.4977   -1.3255 H   0  0  0  0  0  0  0  0  0  0  0  0
   -8.0403    5.1207    0.2797 H   0  0  0  0  0  0  0  0  0  0  0  0
   -5.0114    4.7808    0.0930 H   0  0  0  0  0  0  0  0  0  0  0  0
   -3.6148    2.7516    0.0229 H   0  0  0  0  0  0  0  0  0  0  0  0
   -6.5045    0.5138    2.2031 H   0  0  0  0  0  0  0  0  0  0  0  0
   -7.4864   -0.5468    1.1689 H   0  0  0  0  0  0  0  0  0  0  0  0
  1  2  1  0
  2  3  1  0
  3  4  1  0
  4  5  2  0
  4  6  1  0
  6  7  1  0
  6  8  1  0
  8  9  1  0
  9 10  2  0
 10 11  1  0
 11 12  2  0
 12 13  1  0
 13 14  2  0
  2 15  1  0
 15 16  2  0
 15 17  1  0
 17 18  1  0
 18 19  1  0
 19 20  1  0
 20 21  1  0
 21 22  1  0
 22 23  2  0
 22 24  1  0
 24 25  1  0
 25 26  1  0
 26 27  1  0
 27 28  2  0
 28 29  1  0
 29 30  2  0
 30 31  1  0
 30 32  1  0
 32 33  2  0
 25 34  1  0
 34 35  1  0
 34 36  2  0
 14  9  1  0
 21 17  1  0
 33 27  1  0
  1 37  1  0
  1 38  1  0
  1 39  1  0
  2 40  1  6
  3 41  1  0
  6 42  1  1
  7 43  1  0
  7 44  1  0
  8 45  1  0
  8 46  1  0
 10 47  1  0
 11 48  1  0
 12 49  1  0
 13 50  1  0
 14 51  1  0
 18 52  1  0
 18 53  1  0
 19 54  1  0
 19 55  1  0
 20 56  1  0
 20 57  1  0
 21 58  1  6
 24 59  1  0
 25 60  1  1
 26 61  1  0
 26 62  1  0
 28 63  1  0
 29 64  1  0
 31 65  1  0
 32 66  1  0
 33 67  1  0
 35 68  1  0
 35 69  1  0
M  END
$$$$
[H]N=C(N([H])[H])N([H])C([H])([H])C([H])([H])C([H])([H])[C@@]1([H])C(=O)N([H])[C@@]([H])(C([H])([H])c2c([H])c([H])c([H])c([H])c2[H])C(=O)N([H])C([H])([H])C(=O)N([H])[C@@]([H])(C([H])([H])c2c([H])nc([H])n2[H])C(=O)N([H])[C@]([H])(C([H])([H])c2c([H])c([H])c(O[H])c([H])c2[H])C(=O)N1[H]
     RDKit          3D

 88 91  0  0  0  0  0  0  0  0999 V2000
    4.0871   -6.5042   -0.1170 N   0  0  0  0  0  0  0  0  0  0  0  0
    3.4948   -5.8754   -1.2514 C   0  0  0  0  0  0  0  0  0  0  0  0
    3.4888   -6.4770   -2.3868 N   0  0  0  0  0  0  0  0  0  0  0  0
    2.9031   -4.5905   -1.1627 N   0  0  0  0  0  0  0  0  0  0  0  0
    3.4571   -3.5128   -1.9158 C   0  0  0  0  0  0  0  0  0  0  0  0
    2.6696   -2.2091   -1.6913 C   0  0  0  0  0  0  0  0  0  0  0  0
    2.6840   -1.8049   -0.2639 C   0  0  0  0  0  0  0  0  0  0  0  0
    2.0119   -0.5579    0.1182 C   0  0  2  0  0  0  0  0  0  0  0  0
    0.6090   -0.3918   -0.1255 N   0  0  0  0  0  0  0  0  0  0  0  0
   -0.3685   -0.8533   -0.9901 C   0  0  0  0  0  0  0  0  0  0  0  0
   -0.2559   -0.4494   -2.2264 O   0  0  0  0  0  0  0  0  0  0  0  0
   -1.5568   -1.6984   -0.9190 C   0  0  1  0  0  0  0  0  0  0  0  0
   -1.6296   -2.7199    0.1689 C   0  0  0  0  0  0  0  0  0  0  0  0
   -1.6133   -2.3059    1.5498 C   0  0  0  0  0  0  0  0  0  0  0  0
   -2.7668   -1.9008    2.2232 C   0  0  0  0  0  0  0  0  0  0  0  0
   -2.7888   -1.5417    3.5439 C   0  0  0  0  0  0  0  0  0  0  0  0
   -1.6484   -1.5651    4.2811 C   0  0  0  0  0  0  0  0  0  0  0  0
   -1.6894   -1.1955    5.6269 O   0  0  0  0  0  0  0  0  0  0  0  0
   -0.4847   -1.9579    3.6600 C   0  0  0  0  0  0  0  0  0  0  0  0
   -0.4801   -2.3201    2.3163 C   0  0  0  0  0  0  0  0  0  0  0  0
   -2.8099   -0.9231   -0.9652 N   0  0  0  0  0  0  0  0  0  0  0  0
   -3.1574    0.3759   -1.2356 C   0  0  0  0  0  0  0  0  0  0  0  0
   -3.3717    1.1644   -0.1956 O   0  0  0  0  0  0  0  0  0  0  0  0
   -3.3745    1.1734   -2.4448 C   0  0  2  0  0  0  0  0  0  0  0  0
   -3.3717    0.4768   -3.7668 C   0  0  0  0  0  0  0  0  0  0  0  0
   -4.4088   -0.5665   -3.9313 C   0  0  0  0  0  0  0  0  0  0  0  0
   -4.4127   -1.9210   -3.7157 C   0  0  0  0  0  0  0  0  0  0  0  0
   -5.6148   -2.4499   -4.0039 N   0  0  0  0  0  0  0  0  0  0  0  0
   -6.3991   -1.4292   -4.4112 C   0  0  0  0  0  0  0  0  0  0  0  0
   -5.6775   -0.3010   -4.3678 N   0  0  0  0  0  0  0  0  0  0  0  0
   -2.8155    2.4990   -2.4906 N   0  0  0  0  0  0  0  0  0  0  0  0
   -1.9779    3.2463   -1.6976 C   0  0  0  0  0  0  0  0  0  0  0  0
   -2.5460    4.1771   -0.9918 O   0  0  0  0  0  0  0  0  0  0  0  0
   -0.5126    3.1973   -1.4901 C   0  0  0  0  0  0  0  0  0  0  0  0
   -0.1449    3.8915   -0.2473 N   0  0  0  0  0  0  0  0  0  0  0  0
    0.5280    3.3601    0.8462 C   0  0  0  0  0  0  0  0  0  0  0  0
   -0.0786    3.4936    1.9825 O   0  0  0  0  0  0  0  0  0  0  0  0
    1.8100    2.6691    0.9460 C   0  0  2  0  0  0  0  0  0  0  0  0
    2.8805    3.6994    1.3124 C   0  0  0  0  0  0  0  0  0  0  0  0
    2.6657    4.3847    2.5745 C   0  0  0  0  0  0  0  0  0  0  0  0
    3.1448    3.8259    3.7458 C   0  0  0  0  0  0  0  0  0  0  0  0
    2.9690    4.4686    4.9505 C   0  0  0  0  0  0  0  0  0  0  0  0
    2.3154    5.6736    5.0087 C   0  0  0  0  0  0  0  0  0  0  0  0
    1.8407    6.2220    3.8286 C   0  0  0  0  0  0  0  0  0  0  0  0
    2.0098    5.5930    2.6277 C   0  0  0  0  0  0  0  0  0  0  0  0
    2.2933    1.9995   -0.2378 N   0  0  0  0  0  0  0  0  0  0  0  0
    2.7701    0.6777   -0.3468 C   0  0  0  0  0  0  0  0  0  0  0  0
    3.8906    0.4089   -0.8521 O   0  0  0  0  0  0  0  0  0  0  0  0
    4.4211   -5.9188    0.6726 H   0  0  0  0  0  0  0  0  0  0  0  0
    4.1910   -7.5301   -0.0650 H   0  0  0  0  0  0  0  0  0  0  0  0
    3.9136   -7.4215   -2.4874 H   0  0  0  0  0  0  0  0  0  0  0  0
    2.0755   -4.4337   -0.5565 H   0  0  0  0  0  0  0  0  0  0  0  0
    4.4927   -3.2728   -1.5662 H   0  0  0  0  0  0  0  0  0  0  0  0
    3.5072   -3.7224   -3.0042 H   0  0  0  0  0  0  0  0  0  0  0  0
    2.9432   -1.4251   -2.3858 H   0  0  0  0  0  0  0  0  0  0  0  0
    1.6025   -2.5102   -1.9232 H   0  0  0  0  0  0  0  0  0  0  0  0
    2.3109   -2.6236    0.4053 H   0  0  0  0  0  0  0  0  0  0  0  0
    3.7687   -1.7120    0.0369 H   0  0  0  0  0  0  0  0  0  0  0  0
    2.1600   -0.4844    1.2617 H   0  0  0  0  0  0  0  0  0  0  0  0
    0.2824    0.3697    0.6051 H   0  0  0  0  0  0  0  0  0  0  0  0
   -1.5663   -2.3330   -1.8664 H   0  0  0  0  0  0  0  0  0  0  0  0
   -2.5590   -3.3563    0.0124 H   0  0  0  0  0  0  0  0  0  0  0  0
   -0.8163   -3.4760   -0.0695 H   0  0  0  0  0  0  0  0  0  0  0  0
   -3.6796   -1.8771    1.6574 H   0  0  0  0  0  0  0  0  0  0  0  0
   -3.7002   -1.2397    4.0109 H   0  0  0  0  0  0  0  0  0  0  0  0
   -0.8956   -1.1886    6.2314 H   0  0  0  0  0  0  0  0  0  0  0  0
    0.4132   -1.9699    4.2609 H   0  0  0  0  0  0  0  0  0  0  0  0
    0.4846   -2.6170    1.9318 H   0  0  0  0  0  0  0  0  0  0  0  0
   -3.6376   -1.5698   -0.6977 H   0  0  0  0  0  0  0  0  0  0  0  0
   -4.5432    1.4575   -2.3955 H   0  0  0  0  0  0  0  0  0  0  0  0
   -3.5585    1.2815   -4.5399 H   0  0  0  0  0  0  0  0  0  0  0  0
   -2.4125   -0.0115   -3.9215 H   0  0  0  0  0  0  0  0  0  0  0  0
   -3.5770   -2.5082   -3.3712 H   0  0  0  0  0  0  0  0  0  0  0  0
   -7.4421   -1.5065   -4.7225 H   0  0  0  0  0  0  0  0  0  0  0  0
   -6.0436    0.6306   -4.6314 H   0  0  0  0  0  0  0  0  0  0  0  0
   -3.1880    3.0158   -3.3929 H   0  0  0  0  0  0  0  0  0  0  0  0
   -0.0666    2.2099   -1.4864 H   0  0  0  0  0  0  0  0  0  0  0  0
    0.0311    3.7842   -2.2794 H   0  0  0  0  0  0  0  0  0  0  0  0
   -0.4483    4.9006   -0.2312 H   0  0  0  0  0  0  0  0  0  0  0  0
    1.8033    1.9748    1.8259 H   0  0  0  0  0  0  0  0  0  0  0  0
    2.9103    4.4021    0.4360 H   0  0  0  0  0  0  0  0  0  0  0  0
    3.8350    3.1121    1.3637 H   0  0  0  0  0  0  0  0  0  0  0  0
    3.6605    2.8744    3.6914 H   0  0  0  0  0  0  0  0  0  0  0  0
    3.3327    4.0559    5.8895 H   0  0  0  0  0  0  0  0  0  0  0  0
    2.1809    6.1768    5.9684 H   0  0  0  0  0  0  0  0  0  0  0  0
    1.3237    7.1691    3.8452 H   0  0  0  0  0  0  0  0  0  0  0  0
    1.6254    6.0503    1.7288 H   0  0  0  0  0  0  0  0  0  0  0  0
    2.2976    2.5874   -1.1108 H   0  0  0  0  0  0  0  0  0  0  0  0
  1  2  1  0
  2  3  2  3
  2  4  1  0
  4  5  1  0
  5  6  1  0
  6  7  1  0
  7  8  1  0
  8  9  1  0
  9 10  1  0
 10 11  2  0
 10 12  1  0
 12 13  1  0
 13 14  1  0
 14 15  2  0
 15 16  1  0
 16 17  2  0
 17 18  1  0
 17 19  1  0
 19 20  2  0
 12 21  1  0
 21 22  1  0
 22 23  2  0
 22 24  1  0
 24 25  1  0
 25 26  1  0
 26 27  2  0
 27 28  1  0
 28 29  2  0
 29 30  1  0
 24 31  1  0
 31 32  1  0
 32 33  2  0
 32 34  1  0
 34 35  1  0
 35 36  1  0
 36 37  2  0
 36 38  1  0
 38 39  1  0
 39 40  1  0
 40 41  2  0
 41 42  1  0
 42 43  2  0
 43 44  1  0
 44 45  2  0
 38 46  1  0
 46 47  1  0
 47 48  2  0
 47  8  1  0
 20 14  1  0
 30 26  1  0
 45 40  1  0
  1 49  1  0
  1 50  1  0
  3 51  1  0
  4 52  1  0
  5 53  1  0
  5 54  1  0
  6 55  1  0
  6 56  1  0
  7 57  1  0
  7 58  1  0
  8 59  1  1
  9 60  1  0
 12 61  1  6
 13 62  1  0
 13 63  1  0
 15 64  1  0
 16 65  1  0
 18 66  1  0
 19 67  1  0
 20 68  1  0
 21 69  1  0
 24 70  1  1
 25 71  1  0
 25 72  1  0
 27 73  1  0
 29 74  1  0
 30 75  1  0
 31 76  1  0
 34 77  1  0
 34 78  1  0
 35 79  1  0
 38 80  1  1
 39 81  1  0
 39 82  1  0
 41 83  1  0
 42 84  1  0
 43 85  1  0
 44 86  1  0
 45 87  1  0
 46 88  1  0
M  END
$$$$
[H]c1nc(N([H])c2c([H])c([H])c([N+](=O)[O-])c([H])c2OC([H])([H])[H])nc(N([H])c2c([H])c([H])c([H])c([H])c2S(=O)(=O)C([H])(C([H])([H])[H])C([H])([H])[H])c1Cl
     RDKit          3D

 52 54  0  0  0  0  0  0  0  0999 V2000
    5.3729    2.6168   -2.1854 C   0  0  0  0  0  0  0  0  0  0  0  0
    4.5964    1.6737   -1.4959 O   0  0  0  0  0  0  0  0  0  0  0  0
    5.1794    0.6551   -0.7614 C   0  0  0  0  0  0  0  0  0  0  0  0
    6.5496    0.5376   -0.6861 C   0  0  0  0  0  0  0  0  0  0  0  0
    7.1629   -0.4517    0.0269 C   0  0  0  0  0  0  0  0  0  0  0  0
    6.3554   -1.3390    0.6762 C   0  0  0  0  0  0  0  0  0  0  0  0
    4.9635   -1.2241    0.6029 C   0  0  0  0  0  0  0  0  0  0  0  0
    4.3253   -0.2461   -0.1018 C   0  0  0  0  0  0  0  0  0  0  0  0
    2.9482   -0.0410   -0.2406 N   0  0  0  0  0  0  0  0  0  0  0  0
    1.9284   -0.8433    0.3485 C   0  0  0  0  0  0  0  0  0  0  0  0
    2.1080   -1.9066    1.1183 N   0  0  0  0  0  0  0  0  0  0  0  0
    1.1158   -2.6314    1.6510 C   0  0  0  0  0  0  0  0  0  0  0  0
   -0.1767   -2.2655    1.3949 C   0  0  0  0  0  0  0  0  0  0  0  0
   -1.4700   -3.2135    2.0917 Cl  0  0  0  0  0  0  0  0  0  0  0  0
   -0.4307   -1.1509    0.5886 C   0  0  0  0  0  0  0  0  0  0  0  0
   -1.7766   -0.7912    0.3410 N   0  0  0  0  0  0  0  0  0  0  0  0
   -2.3174    0.2451   -0.4093 C   0  0  0  0  0  0  0  0  0  0  0  0
   -1.5773    1.1426   -1.1337 C   0  0  0  0  0  0  0  0  0  0  0  0
   -2.1600    2.1744   -1.8952 C   0  0  0  0  0  0  0  0  0  0  0  0
   -3.5231    2.3068   -1.9290 C   0  0  0  0  0  0  0  0  0  0  0  0
   -4.2858    1.4160   -1.2084 C   0  0  0  0  0  0  0  0  0  0  0  0
   -3.6992    0.4121   -0.4680 C   0  0  0  0  0  0  0  0  0  0  0  0
   -4.7259   -0.6528    0.4100 S   0  0  0  0  0  0  0  0  0  0  0  0
   -4.6439   -2.0806   -0.0455 O   0  0  0  0  0  0  0  0  0  0  0  0
   -4.4492   -0.6544    1.9061 O   0  0  0  0  0  0  0  0  0  0  0  0
   -6.4655   -0.2305    0.1669 C   0  0  0  0  0  0  0  0  0  0  0  0
   -7.2192   -1.4064    0.8152 C   0  0  0  0  0  0  0  0  0  0  0  0
   -6.8503    1.0305    0.8529 C   0  0  0  0  0  0  0  0  0  0  0  0
    0.6226   -0.5118    0.1176 N   0  0  0  0  0  0  0  0  0  0  0  0
    8.5762   -0.5059    0.0560 N   0  0  0  0  0  0  0  0  0  0  0  0
    9.3245    0.4161   -0.6180 O   0  0  0  0  0  0  0  0  0  0  0  0
    9.1713   -1.3930    0.6950 O   0  0  0  0  0  0  0  0  0  0  0  0
    6.1662    3.0499   -1.5482 H   0  0  0  0  0  0  0  0  0  0  0  0
    5.8913    2.1004   -3.0429 H   0  0  0  0  0  0  0  0  0  0  0  0
    4.6841    3.4015   -2.5851 H   0  0  0  0  0  0  0  0  0  0  0  0
    7.1349    1.2795   -1.2283 H   0  0  0  0  0  0  0  0  0  0  0  0
    6.8066   -2.1371    1.2517 H   0  0  0  0  0  0  0  0  0  0  0  0
    4.4096   -1.9645    1.1438 H   0  0  0  0  0  0  0  0  0  0  0  0
    2.6352    0.7871   -0.8388 H   0  0  0  0  0  0  0  0  0  0  0  0
    1.3552   -3.5082    2.2850 H   0  0  0  0  0  0  0  0  0  0  0  0
   -2.4824   -1.4436    0.8170 H   0  0  0  0  0  0  0  0  0  0  0  0
   -0.5054    1.1047   -1.1602 H   0  0  0  0  0  0  0  0  0  0  0  0
   -1.5486    2.8672   -2.4564 H   0  0  0  0  0  0  0  0  0  0  0  0
   -3.9527    3.1071   -2.5210 H   0  0  0  0  0  0  0  0  0  0  0  0
   -5.3537    1.5549   -1.2658 H   0  0  0  0  0  0  0  0  0  0  0  0
   -6.6819   -0.2892   -0.8947 H   0  0  0  0  0  0  0  0  0  0  0  0
   -8.2598   -1.4516    0.4951 H   0  0  0  0  0  0  0  0  0  0  0  0
   -6.6516   -2.3440    0.5937 H   0  0  0  0  0  0  0  0  0  0  0  0
   -7.2109   -1.2909    1.9249 H   0  0  0  0  0  0  0  0  0  0  0  0
   -7.3712    1.6831    0.0927 H   0  0  0  0  0  0  0  0  0  0  0  0
   -6.0004    1.5665    1.3258 H   0  0  0  0  0  0  0  0  0  0  0  0
   -7.5942    0.8398    1.6352 H   0  0  0  0  0  0  0  0  0  0  0  0
  1  2  1  0
  2  3  1  0
  3  4  2  0
  4  5  1  0
  5  6  2  0
  6  7  1  0
  7  8  2  0
  8  9  1  0
  9 10  1  0
 10 11  2  0
 11 12  1  0
 12 13  2  0
 13 14  1  0
 13 15  1  0
 15 16  1  0
 16 17  1  0
 17 18  2  0
 18 19  1  0
 19 20  2  0
 20 21  1  0
 21 22  2  0
 22 23  1  0
 23 24  2  0
 23 25  2  0
 23 26  1  0
 26 27  1  0
 26 28  1  0
 15 29  2  0
  5 30  1  0
 30 31  1  0
 30 32  2  0
  8  3  1  0
 29 10  1  0
 22 17  1  0
  1 33  1  0
  1 34  1  0
  1 35  1  0
  4 36  1  0
  6 37  1  0
  7 38  1  0
  9 39  1  0
 12 40  1  0
 16 41  1  0
 18 42  1  0
 19 43  1  0
 20 44  1  0
 21 45  1  0
 26 46  1  0
 27 47  1  0
 27 48  1  0
 27 49  1  0
 28 50  1  0
 28 51  1  0
 28 52  1  0
M  CHG  2  30   1  31  -1
M  END
$$$$
[H]c1nc(F)c([H])c([H])c1Oc1c([H])c([H])c(C(F)(F)F)c([H])c1C(=O)N([H])c1c([H])c([H])n([H])c(=O)c1[H]
     RDKit          3D

 39 41  0  0  0  0  0  0  0  0999 V2000
   -3.4624    4.0413    1.5966 F   0  0  0  0  0  0  0  0  0  0  0  0
   -2.9944    3.0388    0.8089 C   0  0  0  0  0  0  0  0  0  0  0  0
   -2.5706    3.2889   -0.4868 C   0  0  0  0  0  0  0  0  0  0  0  0
   -2.0960    2.2066   -1.2421 C   0  0  0  0  0  0  0  0  0  0  0  0
   -2.0510    0.9464   -0.7222 C   0  0  0  0  0  0  0  0  0  0  0  0
   -1.5780   -0.1397   -1.4986 O   0  0  0  0  0  0  0  0  0  0  0  0
   -1.3796   -1.3654   -0.8462 C   0  0  0  0  0  0  0  0  0  0  0  0
   -2.3464   -2.3598   -1.0749 C   0  0  0  0  0  0  0  0  0  0  0  0
   -2.2383   -3.5781   -0.4593 C   0  0  0  0  0  0  0  0  0  0  0  0
   -1.1679   -3.7751    0.3694 C   0  0  0  0  0  0  0  0  0  0  0  0
   -0.2263   -2.8033    0.5851 C   0  0  0  0  0  0  0  0  0  0  0  0
   -0.2989   -1.5276   -0.0368 C   0  0  0  0  0  0  0  0  0  0  0  0
    0.8554   -0.6768    0.1255 C   0  0  0  0  0  0  0  0  0  0  0  0
    1.6694   -1.0091    1.0465 O   0  0  0  0  0  0  0  0  0  0  0  0
    1.2171    0.4880   -0.5844 N   0  0  0  0  0  0  0  0  0  0  0  0
    2.3619    1.2690   -0.2934 C   0  0  0  0  0  0  0  0  0  0  0  0
    3.0215    1.9473   -1.3284 C   0  0  0  0  0  0  0  0  0  0  0  0
    4.1151    2.7446   -1.0694 C   0  0  0  0  0  0  0  0  0  0  0  0
    4.5283    2.8555    0.1788 N   0  0  0  0  0  0  0  0  0  0  0  0
    3.9439    2.2364    1.2096 C   0  0  0  0  0  0  0  0  0  0  0  0
    4.3786    2.3769    2.3746 O   0  0  0  0  0  0  0  0  0  0  0  0
    2.8279    1.4196    0.9737 C   0  0  0  0  0  0  0  0  0  0  0  0
   -1.0681   -5.0862    1.0705 C   0  0  0  0  0  0  0  0  0  0  0  0
    0.0884   -5.1684    1.8155 F   0  0  0  0  0  0  0  0  0  0  0  0
   -1.2636   -6.1608    0.2681 F   0  0  0  0  0  0  0  0  0  0  0  0
   -2.1017   -5.0951    2.0249 F   0  0  0  0  0  0  0  0  0  0  0  0
   -2.4832    0.7509    0.5711 C   0  0  0  0  0  0  0  0  0  0  0  0
   -2.9460    1.7974    1.3111 N   0  0  0  0  0  0  0  0  0  0  0  0
   -2.6060    4.2926   -0.8736 H   0  0  0  0  0  0  0  0  0  0  0  0
   -1.7751    2.4547   -2.2294 H   0  0  0  0  0  0  0  0  0  0  0  0
   -3.1722   -2.1373   -1.7387 H   0  0  0  0  0  0  0  0  0  0  0  0
   -2.9796   -4.3326   -0.6331 H   0  0  0  0  0  0  0  0  0  0  0  0
    0.6102   -2.9864    1.2358 H   0  0  0  0  0  0  0  0  0  0  0  0
    0.6441    0.7731   -1.4134 H   0  0  0  0  0  0  0  0  0  0  0  0
    2.6406    1.8189   -2.3349 H   0  0  0  0  0  0  0  0  0  0  0  0
    4.5983    3.2513   -1.9193 H   0  0  0  0  0  0  0  0  0  0  0  0
    5.3743    3.4662    0.3534 H   0  0  0  0  0  0  0  0  0  0  0  0
    2.3886    0.9697    1.8446 H   0  0  0  0  0  0  0  0  0  0  0  0
   -2.4583   -0.2324    0.9951 H   0  0  0  0  0  0  0  0  0  0  0  0
  1  2  1  0
  2  3  2  0
  3  4  1  0
  4  5  2  0
  5  6  1  0
  6  7  1  0
  7  8  2  0
  8  9  1  0
  9 10  2  0
 10 11  1  0
 11 12  2  0
 12 13  1  0
 13 14  2  0
 13 15  1  0
 15 16  1  0
 16 17  1  0
 17 18  2  0
 18 19  1  0
 19 20  1  0
 20 21  2  0
 20 22  1  0
 10 23  1  0
 23 24  1  0
 23 25  1  0
 23 26  1  0
  5 27  1  0
 27 28  2  0
 28  2  1  0
 12  7  1  0
 22 16  2  0
  3 29  1  0
  4 30  1  0
  8 31  1  0
  9 32  1  0
 11 33  1  0
 15 34  1  0
 17 35  1  0
 18 36  1  0
 19 37  1  0
 22 38  1  0
 27 39  1  0
M  END
$$$$
[H]c1nc2c(nc1-c1c([H])c(N([H])C(=O)c3c([H])c([H])c(C([H])([H])N4C([H])([H])C([H])([H])N(C([H])([H])[H])C([H])([H])C4([H])[H])c(C(F)(F)F)c3[H])c([H])c([H])c1C([H])([H])[H])c([H])c([H])n2[H]
     RDKit          3D

 64 68  0  0  0  0  0  0  0  0999 V2000
   -8.6588   -0.3982    1.9646 C   0  0  0  0  0  0  0  0  0  0  0  0
   -7.3070   -0.0004    1.6596 N   0  0  0  0  0  0  0  0  0  0  0  0
   -7.2401    1.1456    0.7891 C   0  0  0  0  0  0  0  0  0  0  0  0
   -7.0476    0.7802   -0.6435 C   0  0  0  0  0  0  0  0  0  0  0  0
   -5.8025    0.0090   -0.8280 N   0  0  0  0  0  0  0  0  0  0  0  0
   -4.7065    0.6993   -0.1686 C   0  0  0  0  0  0  0  0  0  0  0  0
   -3.3761    0.2143   -0.5139 C   0  0  0  0  0  0  0  0  0  0  0  0
   -3.1692   -0.7523   -1.4631 C   0  0  0  0  0  0  0  0  0  0  0  0
   -1.8896   -1.1700   -1.8082 C   0  0  0  0  0  0  0  0  0  0  0  0
   -0.7666   -0.6365   -1.2181 C   0  0  0  0  0  0  0  0  0  0  0  0
   -0.9593    0.3263   -0.2729 C   0  0  0  0  0  0  0  0  0  0  0  0
   -2.2518    0.7576    0.0856 C   0  0  0  0  0  0  0  0  0  0  0  0
   -2.4071    1.8000    1.1131 C   0  0  0  0  0  0  0  0  0  0  0  0
   -3.0895    1.4199    2.2248 F   0  0  0  0  0  0  0  0  0  0  0  0
   -2.9085    2.9848    0.5691 F   0  0  0  0  0  0  0  0  0  0  0  0
   -1.1261    2.1581    1.5585 F   0  0  0  0  0  0  0  0  0  0  0  0
    0.5862   -1.1073   -1.6019 C   0  0  0  0  0  0  0  0  0  0  0  0
    0.6914   -2.1772   -2.2635 O   0  0  0  0  0  0  0  0  0  0  0  0
    1.7374   -0.3941   -1.2488 N   0  0  0  0  0  0  0  0  0  0  0  0
    3.0635   -0.7729   -1.5863 C   0  0  0  0  0  0  0  0  0  0  0  0
    3.4104   -1.5676   -2.6409 C   0  0  0  0  0  0  0  0  0  0  0  0
    4.7005   -1.9267   -2.9109 C   0  0  0  0  0  0  0  0  0  0  0  0
    5.7322   -1.4799   -2.0961 C   0  0  0  0  0  0  0  0  0  0  0  0
    7.1183   -1.8599   -2.5047 C   0  0  0  0  0  0  0  0  0  0  0  0
    5.4372   -0.6903   -1.0364 C   0  0  0  0  0  0  0  0  0  0  0  0
    4.0928   -0.3250   -0.7689 C   0  0  0  0  0  0  0  0  0  0  0  0
    6.4428   -0.1234   -0.1468 C   0  0  0  0  0  0  0  0  0  0  0  0
    7.6060   -0.7035    0.2047 C   0  0  0  0  0  0  0  0  0  0  0  0
    8.4572   -0.1113    1.1164 N   0  0  0  0  0  0  0  0  0  0  0  0
    8.1769    1.0560    1.6955 C   0  0  0  0  0  0  0  0  0  0  0  0
    8.8069    1.8495    2.6000 N   0  0  0  0  0  0  0  0  0  0  0  0
    8.0859    2.9396    2.8555 C   0  0  0  0  0  0  0  0  0  0  0  0
    6.9493    2.8381    2.0828 C   0  0  0  0  0  0  0  0  0  0  0  0
    6.9902    1.6583    1.3462 C   0  0  0  0  0  0  0  0  0  0  0  0
    6.1703    1.0807    0.4623 N   0  0  0  0  0  0  0  0  0  0  0  0
   -6.0666   -1.2365   -0.1045 C   0  0  0  0  0  0  0  0  0  0  0  0
   -6.4386   -1.0639    1.3229 C   0  0  0  0  0  0  0  0  0  0  0  0
   -9.2930   -0.1626    1.0678 H   0  0  0  0  0  0  0  0  0  0  0  0
   -9.0244    0.2702    2.7752 H   0  0  0  0  0  0  0  0  0  0  0  0
   -8.7514   -1.4663    2.2130 H   0  0  0  0  0  0  0  0  0  0  0  0
   -6.4409    1.8546    1.0769 H   0  0  0  0  0  0  0  0  0  0  0  0
   -8.1965    1.6898    0.8848 H   0  0  0  0  0  0  0  0  0  0  0  0
   -7.8584    0.1041   -0.9830 H   0  0  0  0  0  0  0  0  0  0  0  0
   -6.9704    1.6777   -1.2568 H   0  0  0  0  0  0  0  0  0  0  0  0
   -4.8781    0.4984    0.9288 H   0  0  0  0  0  0  0  0  0  0  0  0
   -4.8817    1.7735   -0.3173 H   0  0  0  0  0  0  0  0  0  0  0  0
   -4.0106   -1.2147   -1.9975 H   0  0  0  0  0  0  0  0  0  0  0  0
   -1.7312   -1.9398   -2.5639 H   0  0  0  0  0  0  0  0  0  0  0  0
   -0.1086    0.7951    0.2443 H   0  0  0  0  0  0  0  0  0  0  0  0
    1.6019    0.5147   -0.6807 H   0  0  0  0  0  0  0  0  0  0  0  0
    2.6496   -1.9281   -3.3243 H   0  0  0  0  0  0  0  0  0  0  0  0
    4.9639   -2.5535   -3.7427 H   0  0  0  0  0  0  0  0  0  0  0  0
    7.3609   -2.8223   -2.0644 H   0  0  0  0  0  0  0  0  0  0  0  0
    7.8419   -1.0435   -2.3933 H   0  0  0  0  0  0  0  0  0  0  0  0
    7.1123   -2.0531   -3.6217 H   0  0  0  0  0  0  0  0  0  0  0  0
    3.8892    0.2996    0.0709 H   0  0  0  0  0  0  0  0  0  0  0  0
    7.9382   -1.6782   -0.1623 H   0  0  0  0  0  0  0  0  0  0  0  0
    9.7384    1.6422    3.0453 H   0  0  0  0  0  0  0  0  0  0  0  0
    8.3582    3.7459    3.5457 H   0  0  0  0  0  0  0  0  0  0  0  0
    6.1422    3.5539    2.0430 H   0  0  0  0  0  0  0  0  0  0  0  0
   -6.8385   -1.8164   -0.6772 H   0  0  0  0  0  0  0  0  0  0  0  0
   -5.1541   -1.8473   -0.1344 H   0  0  0  0  0  0  0  0  0  0  0  0
   -5.5274   -1.0938    1.9933 H   0  0  0  0  0  0  0  0  0  0  0  0
   -6.9755   -2.0209    1.6185 H   0  0  0  0  0  0  0  0  0  0  0  0
  1  2  1  0
  2  3  1  0
  3  4  1  0
  4  5  1  0
  5  6  1  0
  6  7  1  0
  7  8  2  0
  8  9  1  0
  9 10  2  0
 10 11  1  0
 11 12  2  0
 12 13  1  0
 13 14  1  0
 13 15  1  0
 13 16  1  0
 10 17  1  0
 17 18  2  0
 17 19  1  0
 19 20  1  0
 20 21  2  0
 21 22  1  0
 22 23  2  0
 23 24  1  0
 23 25  1  0
 25 26  2  0
 25 27  1  0
 27 28  2  0
 28 29  1  0
 29 30  2  0
 30 31  1  0
 31 32  1  0
 32 33  2  0
 33 34  1  0
 34 35  2  0
  5 36  1  0
 36 37  1  0
 37  2  1  0
 12  7  1  0
 26 20  1  0
 35 27  1  0
 34 30  1  0
  1 38  1  0
  1 39  1  0
  1 40  1  0
  3 41  1  0
  3 42  1  0
  4 43  1  0
  4 44  1  0
  6 45  1  0
  6 46  1  0
  8 47  1  0
  9 48  1  0
 11 49  1  0
 19 50  1  0
 21 51  1  0
 22 52  1  0
 24 53  1  0
 24 54  1  0
 24 55  1  0
 26 56  1  0
 28 57  1  0
 31 58  1  0
 32 59  1  0
 33 60  1  0
 36 61  1  0
 36 62  1  0
 37 63  1  0
 37 64  1  0
M  END
$$$$
[H]N=C(N([H])[H])N([H])C([H])([H])C([H])([H])C([H])([H])[C@@]([H])(C(=O)N([H])[C@]([H])(C(=O)c1nc2c([H])c([H])c([H])c([H])c2s1)C([H])([H])c1c([H])c([H])c([H])c([H])c1[H])N([H])C(=O)[C@@]1([H])N(C(=O)[C@@]([H])(N([H])C(=O)OC([H])([H])c2c([H])c([H])c([H])c([H])c2[H])C([H])([H])c2c([H])c([H])c([H])c([H])c2[H])C([H])([H])C([H])([H])C1([H])[H]
     RDKit          3D

107112  0  0  0  0  0  0  0  0999 V2000
   -2.1220   -5.8076   -3.7533 N   0  0  0  0  0  0  0  0  0  0  0  0
   -2.0477   -4.5927   -4.4560 C   0  0  0  0  0  0  0  0  0  0  0  0
   -1.0270   -4.3381   -5.1908 N   0  0  0  0  0  0  0  0  0  0  0  0
   -3.1314   -3.6427   -4.3297 N   0  0  0  0  0  0  0  0  0  0  0  0
   -2.9912   -2.2569   -4.6785 C   0  0  0  0  0  0  0  0  0  0  0  0
   -2.1023   -1.5256   -3.6840 C   0  0  0  0  0  0  0  0  0  0  0  0
   -2.8316   -1.6364   -2.3302 C   0  0  0  0  0  0  0  0  0  0  0  0
   -2.1234   -0.9126   -1.2499 C   0  0  2  0  0  0  0  0  0  0  0  0
   -0.8030   -1.3152   -0.8872 N   0  0  0  0  0  0  0  0  0  0  0  0
   -0.2890   -2.6621   -0.9117 C   0  0  0  0  0  0  0  0  0  0  0  0
   -0.9897   -3.5631   -1.2837 O   0  0  0  0  0  0  0  0  0  0  0  0
    1.1404   -2.8698   -0.4525 C   0  0  2  0  0  0  0  0  0  0  0  0
    1.2208   -4.1962    0.2991 C   0  0  0  0  0  0  0  0  0  0  0  0
    0.6573   -3.8713    1.6694 C   0  0  0  0  0  0  0  0  0  0  0  0
    0.6310   -2.3804    1.7125 C   0  0  0  0  0  0  0  0  0  0  0  0
    1.4717   -1.9074    0.5674 N   0  0  0  0  0  0  0  0  0  0  0  0
    2.3541   -0.8727    0.7015 C   0  0  0  0  0  0  0  0  0  0  0  0
    2.2056   -0.1067    1.7514 O   0  0  0  0  0  0  0  0  0  0  0  0
    3.5083   -0.4587   -0.1798 C   0  0  2  0  0  0  0  0  0  0  0  0
    4.5624   -1.5794    0.0521 C   0  0  0  0  0  0  0  0  0  0  0  0
    5.7960   -1.4731   -0.6598 C   0  0  0  0  0  0  0  0  0  0  0  0
    5.8281   -1.8896   -1.9873 C   0  0  0  0  0  0  0  0  0  0  0  0
    7.0123   -1.8780   -2.6633 C   0  0  0  0  0  0  0  0  0  0  0  0
    8.2199   -1.4626   -2.0843 C   0  0  0  0  0  0  0  0  0  0  0  0
    8.1300   -1.0679   -0.7905 C   0  0  0  0  0  0  0  0  0  0  0  0
    6.9788   -1.0545   -0.0622 C   0  0  0  0  0  0  0  0  0  0  0  0
    3.9749    0.7998    0.3367 N   0  0  0  0  0  0  0  0  0  0  0  0
    4.6885    1.8221   -0.3147 C   0  0  0  0  0  0  0  0  0  0  0  0
    5.0683    1.6820   -1.4993 O   0  0  0  0  0  0  0  0  0  0  0  0
    4.9675    2.9906    0.3471 O   0  0  0  0  0  0  0  0  0  0  0  0
    5.7062    4.0356   -0.2346 C   0  0  0  0  0  0  0  0  0  0  0  0
    7.1289    3.7057   -0.4521 C   0  0  0  0  0  0  0  0  0  0  0  0
    7.7207    2.7639    0.4106 C   0  0  0  0  0  0  0  0  0  0  0  0
    9.0370    2.4559    0.3137 C   0  0  0  0  0  0  0  0  0  0  0  0
    9.8432    3.0780   -0.6652 C   0  0  0  0  0  0  0  0  0  0  0  0
    9.2745    3.9902   -1.4999 C   0  0  0  0  0  0  0  0  0  0  0  0
    7.9278    4.2804   -1.3694 C   0  0  0  0  0  0  0  0  0  0  0  0
   -2.9119   -0.8355   -0.0175 C   0  0  0  0  0  0  0  0  0  0  0  0
   -2.8532   -1.8037    0.8415 O   0  0  0  0  0  0  0  0  0  0  0  0
   -3.7547    0.2188    0.3904 N   0  0  0  0  0  0  0  0  0  0  0  0
   -4.4225    0.2549    1.6368 C   0  0  1  0  0  0  0  0  0  0  0  0
   -3.9214    1.1771    2.6987 C   0  0  0  0  0  0  0  0  0  0  0  0
   -4.5761    1.0444    4.0149 C   0  0  0  0  0  0  0  0  0  0  0  0
   -5.5531    1.8435    4.5344 C   0  0  0  0  0  0  0  0  0  0  0  0
   -6.1320    1.6654    5.7758 C   0  0  0  0  0  0  0  0  0  0  0  0
   -5.7159    0.5998    6.5972 C   0  0  0  0  0  0  0  0  0  0  0  0
   -4.7315   -0.2206    6.0941 C   0  0  0  0  0  0  0  0  0  0  0  0
   -4.1901   -0.0050    4.8632 C   0  0  0  0  0  0  0  0  0  0  0  0
   -5.8823    0.2294    1.4957 C   0  0  0  0  0  0  0  0  0  0  0  0
   -6.5321   -0.8179    1.5757 O   0  0  0  0  0  0  0  0  0  0  0  0
   -6.5793    1.5313    1.2348 C   0  0  0  0  0  0  0  0  0  0  0  0
   -6.0533    2.6960    0.9908 N   0  0  0  0  0  0  0  0  0  0  0  0
   -6.8254    3.7413    0.7644 C   0  0  0  0  0  0  0  0  0  0  0  0
   -6.3816    5.0205    0.4881 C   0  0  0  0  0  0  0  0  0  0  0  0
   -7.2773    6.0443    0.2609 C   0  0  0  0  0  0  0  0  0  0  0  0
   -8.6379    5.8439    0.2993 C   0  0  0  0  0  0  0  0  0  0  0  0
   -9.0770    4.5707    0.5763 C   0  0  0  0  0  0  0  0  0  0  0  0
   -8.1765    3.5215    0.8085 C   0  0  0  0  0  0  0  0  0  0  0  0
   -8.2479    1.8490    1.1648 S   0  0  0  0  0  0  0  0  0  0  0  0
   -3.0424   -6.2708   -3.5167 H   0  0  0  0  0  0  0  0  0  0  0  0
   -1.2348   -6.3105   -3.4367 H   0  0  0  0  0  0  0  0  0  0  0  0
   -1.0019   -3.4150   -5.7043 H   0  0  0  0  0  0  0  0  0  0  0  0
   -4.0728   -3.9677   -3.9657 H   0  0  0  0  0  0  0  0  0  0  0  0
   -4.0021   -1.7949   -4.7485 H   0  0  0  0  0  0  0  0  0  0  0  0
   -2.5820   -2.1664   -5.7318 H   0  0  0  0  0  0  0  0  0  0  0  0
   -2.0895   -0.4674   -3.9536 H   0  0  0  0  0  0  0  0  0  0  0  0
   -1.1341   -2.0214   -3.6946 H   0  0  0  0  0  0  0  0  0  0  0  0
   -3.7888   -1.0858   -2.5179 H   0  0  0  0  0  0  0  0  0  0  0  0
   -3.1033   -2.6747   -2.1600 H   0  0  0  0  0  0  0  0  0  0  0  0
   -1.9871    0.1468   -1.6938 H   0  0  0  0  0  0  0  0  0  0  0  0
   -0.1351   -0.5773   -0.5661 H   0  0  0  0  0  0  0  0  0  0  0  0
    1.8148   -2.9333   -1.3019 H   0  0  0  0  0  0  0  0  0  0  0  0
    2.2686   -4.5131    0.4185 H   0  0  0  0  0  0  0  0  0  0  0  0
    0.6470   -4.9982   -0.1358 H   0  0  0  0  0  0  0  0  0  0  0  0
    1.3291   -4.2932    2.4664 H   0  0  0  0  0  0  0  0  0  0  0  0
   -0.3487   -4.2988    1.8132 H   0  0  0  0  0  0  0  0  0  0  0  0
   -0.3307   -1.9085    1.7498 H   0  0  0  0  0  0  0  0  0  0  0  0
    1.1436   -2.0707    2.6807 H   0  0  0  0  0  0  0  0  0  0  0  0
    3.2724   -0.3993   -1.2241 H   0  0  0  0  0  0  0  0  0  0  0  0
    4.7415   -1.6535    1.1597 H   0  0  0  0  0  0  0  0  0  0  0  0
    4.0283   -2.5461   -0.1833 H   0  0  0  0  0  0  0  0  0  0  0  0
    4.8913   -2.2018   -2.4242 H   0  0  0  0  0  0  0  0  0  0  0  0
    7.0161   -2.2069   -3.6913 H   0  0  0  0  0  0  0  0  0  0  0  0
    9.1012   -1.4870   -2.6788 H   0  0  0  0  0  0  0  0  0  0  0  0
    9.0694   -0.7395   -0.3154 H   0  0  0  0  0  0  0  0  0  0  0  0
    6.9843   -0.7287    0.9582 H   0  0  0  0  0  0  0  0  0  0  0  0
    3.7596    0.9907    1.3598 H   0  0  0  0  0  0  0  0  0  0  0  0
    5.6610    4.9779    0.3413 H   0  0  0  0  0  0  0  0  0  0  0  0
    5.2587    4.2817   -1.2472 H   0  0  0  0  0  0  0  0  0  0  0  0
    7.1359    2.2512    1.1811 H   0  0  0  0  0  0  0  0  0  0  0  0
    9.5479    1.7286    0.9469 H   0  0  0  0  0  0  0  0  0  0  0  0
   10.8765    2.8037   -0.6986 H   0  0  0  0  0  0  0  0  0  0  0  0
    9.8914    4.4777   -2.2594 H   0  0  0  0  0  0  0  0  0  0  0  0
    7.5454    5.0193   -2.0723 H   0  0  0  0  0  0  0  0  0  0  0  0
   -3.8913    1.0283   -0.2588 H   0  0  0  0  0  0  0  0  0  0  0  0
   -4.1655   -0.8036    2.1570 H   0  0  0  0  0  0  0  0  0  0  0  0
   -3.9735    2.2610    2.3777 H   0  0  0  0  0  0  0  0  0  0  0  0
   -2.8240    0.9959    2.8788 H   0  0  0  0  0  0  0  0  0  0  0  0
   -5.9093    2.6877    3.9793 H   0  0  0  0  0  0  0  0  0  0  0  0
   -6.9037    2.3042    6.1728 H   0  0  0  0  0  0  0  0  0  0  0  0
   -6.1742    0.4708    7.5671 H   0  0  0  0  0  0  0  0  0  0  0  0
   -4.4133   -1.0431    6.7210 H   0  0  0  0  0  0  0  0  0  0  0  0
   -3.3986   -0.6684    4.4672 H   0  0  0  0  0  0  0  0  0  0  0  0
   -5.3376    5.2832    0.4230 H   0  0  0  0  0  0  0  0  0  0  0  0
   -6.8910    7.0566    0.0426 H   0  0  0  0  0  0  0  0  0  0  0  0
   -9.2849    6.6717    0.1142 H   0  0  0  0  0  0  0  0  0  0  0  0
  -10.1265    4.3563    0.6244 H   0  0  0  0  0  0  0  0  0  0  0  0
  1  2  1  0
  2  3  2  3
  2  4  1  0
  4  5  1  0
  5  6  1  0
  6  7  1  0
  7  8  1  0
  8  9  1  0
  9 10  1  0
 10 11  2  0
 10 12  1  0
 12 13  1  0
 13 14  1  0
 14 15  1  0
 15 16  1  0
 16 17  1  0
 17 18  2  0
 17 19  1  0
 19 20  1  0
 20 21  1  0
 21 22  2  0
 22 23  1  0
 23 24  2  0
 24 25  1  0
 25 26  2  0
 19 27  1  0
 27 28  1  0
 28 29  2  0
 28 30  1  0
 30 31  1  0
 31 32  1  0
 32 33  2  0
 33 34  1  0
 34 35  2  0
 35 36  1  0
 36 37  2  0
  8 38  1  0
 38 39  2  0
 38 40  1  0
 40 41  1  0
 41 42  1  0
 42 43  1  0
 43 44  2  0
 44 45  1  0
 45 46  2  0
 46 47  1  0
 47 48  2  0
 41 49  1  0
 49 50  2  0
 49 51  1  0
 51 52  2  0
 52 53  1  0
 53 54  2  0
 54 55  1  0
 55 56  2  0
 56 57  1  0
 57 58  2  0
 58 59  1  0
 16 12  1  0
 26 21  1  0
 37 32  1  0
 48 43  1  0
 59 51  1  0
 58 53  1  0
  1 60  1  0
  1 61  1  0
  3 62  1  0
  4 63  1  0
  5 64  1  0
  5 65  1  0
  6 66  1  0
  6 67  1  0
  7 68  1  0
  7 69  1  0
  8 70  1  6
  9 71  1  0
 12 72  1  6
 13 73  1  0
 13 74  1  0
 14 75  1  0
 14 76  1  0
 15 77  1  0
 15 78  1  0
 19 79  1  6
 20 80  1  0
 20 81  1  0
 22 82  1  0
 23 83  1  0
 24 84  1  0
 25 85  1  0
 26 86  1  0
 27 87  1  0
 31 88  1  0
 31 89  1  0
 33 90  1  0
 34 91  1  0
 35 92  1  0
 36 93  1  0
 37 94  1  0
 40 95  1  0
 41 96  1  1
 42 97  1  0
 42 98  1  0
 44 99  1  0
 45100  1  0
 46101  1  0
 47102  1  0
 48103  1  0
 54104  1  0
 55105  1  0
 56106  1  0
 57107  1  0
M  END
$$$$
[H]O[C@@]1([H])[C@]([H])(O[H])[C@@]([H])(C([H])([H])OP(=O)(O[H])OP(=O)(O[H])OP(=O)(O[H])OC([H])([H])[C@@]2([H])O[C@]([H])(O[H])[C@]2([H])O[H])O[C@@]1([H])n1c([H])c([H])c(=O)n([H])c1=O
     RDKit          3D

 57 59  0  0  0  0  0  0  0  0999 V2000
    7.8344    0.2090    1.9628 O   0  0  0  0  0  0  0  0  0  0  0  0
    7.6543    0.8260    0.7003 C   0  0  2  0  0  0  0  0  0  0  0  0
    6.5691    0.1567   -0.0683 C   0  0  1  0  0  0  0  0  0  0  0  0
    5.7450    1.1765   -0.9243 C   0  0  0  0  0  0  0  0  0  0  0  0
    5.5403    0.4299   -2.1169 O   0  0  0  0  0  0  0  0  0  0  0  0
    3.9748   -0.1445   -2.2463 P   0  0  0  0  0  0  0  0  0  0  0  0
    4.1855   -1.7948   -2.7399 O   0  0  0  0  0  0  0  0  0  0  0  0
    3.1217    0.5437   -3.1894 O   0  0  0  0  0  0  0  0  0  0  0  0
    3.3279   -0.1784   -0.6525 O   0  0  0  0  0  0  0  0  0  0  0  0
    1.8575   -0.9678   -0.6986 P   0  0  0  0  0  0  0  0  0  0  0  0
    2.1377   -2.5799   -0.1766 O   0  0  0  0  0  0  0  0  0  0  0  0
    1.3841   -1.0708   -2.1117 O   0  0  0  0  0  0  0  0  0  0  0  0
    0.7680   -0.3076    0.3414 O   0  0  0  0  0  0  0  0  0  0  0  0
    0.5181    1.4026    0.0151 P   0  0  0  0  0  0  0  0  0  0  0  0
    0.0279    1.5806   -1.5525 O   0  0  0  0  0  0  0  0  0  0  0  0
    1.7139    2.1234    0.3915 O   0  0  0  0  0  0  0  0  0  0  0  0
   -0.7794    1.7244    1.1544 O   0  0  0  0  0  0  0  0  0  0  0  0
   -1.9331    1.5430    0.3685 C   0  0  0  0  0  0  0  0  0  0  0  0
   -2.7909    0.4736    0.9425 C   0  0  1  0  0  0  0  0  0  0  0  0
   -3.9278    0.6566    1.6014 O   0  0  0  0  0  0  0  0  0  0  0  0
   -4.7549   -0.4009    1.2844 C   0  0  2  0  0  0  0  0  0  0  0  0
   -4.4767   -0.4536   -0.2974 C   0  0  1  0  0  0  0  0  0  0  0  0
   -4.8995    0.7722   -0.8156 O   0  0  0  0  0  0  0  0  0  0  0  0
   -3.0089   -0.4766   -0.2543 C   0  0  2  0  0  0  0  0  0  0  0  0
   -2.5625   -1.7500    0.0076 O   0  0  0  0  0  0  0  0  0  0  0  0
   -6.1850   -0.1321    1.2823 N   0  0  0  0  0  0  0  0  0  0  0  0
   -6.6545    1.0992    1.2242 C   0  0  0  0  0  0  0  0  0  0  0  0
   -8.0101    1.2842    0.9170 C   0  0  0  0  0  0  0  0  0  0  0  0
   -8.8255    0.1720    0.6864 C   0  0  0  0  0  0  0  0  0  0  0  0
  -10.0368    0.3434    0.4037 O   0  0  0  0  0  0  0  0  0  0  0  0
   -8.2657   -1.0322    0.7748 N   0  0  0  0  0  0  0  0  0  0  0  0
   -6.9388   -1.2124    1.0709 C   0  0  0  0  0  0  0  0  0  0  0  0
   -6.4780   -2.3732    1.1427 O   0  0  0  0  0  0  0  0  0  0  0  0
    7.4878   -0.4932   -0.8640 O   0  0  0  0  0  0  0  0  0  0  0  0
    8.5419    0.2494   -0.3860 C   0  0  2  0  0  0  0  0  0  0  0  0
    9.6069   -0.5133    0.0664 O   0  0  0  0  0  0  0  0  0  0  0  0
    8.7462    0.2931    2.2994 H   0  0  0  0  0  0  0  0  0  0  0  0
    7.6214    1.9160    0.7108 H   0  0  0  0  0  0  0  0  0  0  0  0
    5.8782   -0.5142    0.4655 H   0  0  0  0  0  0  0  0  0  0  0  0
    6.3470    2.0570   -1.1521 H   0  0  0  0  0  0  0  0  0  0  0  0
    4.8482    1.4258   -0.3994 H   0  0  0  0  0  0  0  0  0  0  0  0
    4.3562   -2.3625   -1.9318 H   0  0  0  0  0  0  0  0  0  0  0  0
    1.3291   -2.9196    0.2620 H   0  0  0  0  0  0  0  0  0  0  0  0
   -0.3745    0.7449   -1.9479 H   0  0  0  0  0  0  0  0  0  0  0  0
   -1.8561    1.6762   -0.6810 H   0  0  0  0  0  0  0  0  0  0  0  0
   -2.5282    2.5242    0.6952 H   0  0  0  0  0  0  0  0  0  0  0  0
   -2.0453   -0.1517    1.5984 H   0  0  0  0  0  0  0  0  0  0  0  0
   -4.5023   -1.3717    1.6179 H   0  0  0  0  0  0  0  0  0  0  0  0
   -4.9796   -1.3087   -0.7033 H   0  0  0  0  0  0  0  0  0  0  0  0
   -4.4772    1.5233   -0.3708 H   0  0  0  0  0  0  0  0  0  0  0  0
   -2.5251   -0.0567   -1.1704 H   0  0  0  0  0  0  0  0  0  0  0  0
   -2.1822   -1.9050    0.8865 H   0  0  0  0  0  0  0  0  0  0  0  0
   -5.9917    1.9394    1.4330 H   0  0  0  0  0  0  0  0  0  0  0  0
   -8.4245    2.2636    0.8729 H   0  0  0  0  0  0  0  0  0  0  0  0
   -8.9079   -1.8463    0.6020 H   0  0  0  0  0  0  0  0  0  0  0  0
    8.8585    1.0022   -1.1366 H   0  0  0  0  0  0  0  0  0  0  0  0
    9.3410   -1.1199    0.8054 H   0  0  0  0  0  0  0  0  0  0  0  0
  1  2  1  0
  2  3  1  0
  3  4  1  0
  4  5  1  0
  5  6  1  0
  6  7  1  0
  6  8  2  0
  6  9  1  0
  9 10  1  0
 10 11  1  0
 10 12  2  0
 10 13  1  0
 13 14  1  0
 14 15  1  0
 14 16  2  0
 14 17  1  0
 17 18  1  0
 18 19  1  0
 19 20  1  0
 20 21  1  0
 21 22  1  0
 22 23  1  0
 22 24  1  0
 24 25  1  0
 21 26  1  0
 26 27  1  0
 27 28  2  0
 28 29  1  0
 29 30  2  0
 29 31  1  0
 31 32  1  0
 32 33  2  0
  3 34  1  0
 34 35  1  0
 35 36  1  0
 35  2  1  0
 24 19  1  0
 32 26  1  0
  1 37  1  0
  2 38  1  1
  3 39  1  1
  4 40  1  0
  4 41  1  0
  7 42  1  0
 11 43  1  0
 15 44  1  0
 18 45  1  0
 18 46  1  0
 19 47  1  1
 21 48  1  1
 22 49  1  6
 23 50  1  0
 24 51  1  6
 25 52  1  0
 27 53  1  0
 28 54  1  0
 31 55  1  0
 35 56  1  6
 36 57  1  0
M  END
$$$$
