[H]c1c([H])c(C(=O)N([H])C([H])([H])c2c([H])c([H])c3c(c2C([H])([H])[H])C([H])([H])C([H])([H])C(=O)N3[H])c([H])c(C(F)(F)F)c1[H]
     RDKit          3D

 43 45  0  0  0  0  0  0  0  0999 V2000
   -2.4311   -0.4257    2.3754 C   0  0  0  0  0  0  0  0  0  0  0  0
   -2.4894   -0.3330    0.8799 C   0  0  0  0  0  0  0  0  0  0  0  0
   -1.2331   -0.1798    0.1937 C   0  0  0  0  0  0  0  0  0  0  0  0
   -0.0511   -0.2686    1.0142 C   0  0  0  0  0  0  0  0  0  0  0  0
    1.2416   -0.0129    0.7731 N   0  0  0  0  0  0  0  0  0  0  0  0
    2.1953   -0.4101   -0.2117 C   0  0  0  0  0  0  0  0  0  0  0  0
    1.9630   -1.0922   -1.1702 O   0  0  0  0  0  0  0  0  0  0  0  0
    3.5922    0.0733    0.0033 C   0  0  0  0  0  0  0  0  0  0  0  0
    4.0022    0.4279    1.2728 C   0  0  0  0  0  0  0  0  0  0  0  0
    5.3338    0.8389    1.4841 C   0  0  0  0  0  0  0  0  0  0  0  0
    6.1908    0.8592    0.4350 C   0  0  0  0  0  0  0  0  0  0  0  0
    5.8018    0.4997   -0.8453 C   0  0  0  0  0  0  0  0  0  0  0  0
    4.5072    0.1177   -1.0521 C   0  0  0  0  0  0  0  0  0  0  0  0
    6.8659    0.4806   -1.9444 C   0  0  0  0  0  0  0  0  0  0  0  0
    7.9162   -0.2357   -1.3398 F   0  0  0  0  0  0  0  0  0  0  0  0
    7.1925    1.7057   -2.3910 F   0  0  0  0  0  0  0  0  0  0  0  0
    6.3877   -0.3937   -2.9022 F   0  0  0  0  0  0  0  0  0  0  0  0
   -1.3014   -0.0653   -1.1757 C   0  0  0  0  0  0  0  0  0  0  0  0
   -2.5160   -0.0986   -1.8410 C   0  0  0  0  0  0  0  0  0  0  0  0
   -3.6856   -0.2374   -1.1623 C   0  0  0  0  0  0  0  0  0  0  0  0
   -4.9623   -0.1409   -1.8079 N   0  0  0  0  0  0  0  0  0  0  0  0
   -6.1500   -0.1601   -1.0753 C   0  0  0  0  0  0  0  0  0  0  0  0
   -7.2742   -0.4022   -1.6785 O   0  0  0  0  0  0  0  0  0  0  0  0
   -6.1308    0.0969    0.3746 C   0  0  0  0  0  0  0  0  0  0  0  0
   -4.9203   -0.4775    1.0294 C   0  0  0  0  0  0  0  0  0  0  0  0
   -3.6620   -0.3500    0.2090 C   0  0  0  0  0  0  0  0  0  0  0  0
   -2.1720    0.6118    2.7177 H   0  0  0  0  0  0  0  0  0  0  0  0
   -1.6262   -1.0588    2.7183 H   0  0  0  0  0  0  0  0  0  0  0  0
   -3.3480   -0.8011    2.8339 H   0  0  0  0  0  0  0  0  0  0  0  0
   -0.0734   -1.4265    1.3756 H   0  0  0  0  0  0  0  0  0  0  0  0
   -0.3388    0.1329    2.0554 H   0  0  0  0  0  0  0  0  0  0  0  0
    1.7002    0.7042    1.4886 H   0  0  0  0  0  0  0  0  0  0  0  0
    3.3811    0.4186    2.1383 H   0  0  0  0  0  0  0  0  0  0  0  0
    5.6698    1.1147    2.4782 H   0  0  0  0  0  0  0  0  0  0  0  0
    7.2414    1.1488    0.5424 H   0  0  0  0  0  0  0  0  0  0  0  0
    4.1823   -0.1573   -2.0452 H   0  0  0  0  0  0  0  0  0  0  0  0
   -0.4387    0.0301   -1.7630 H   0  0  0  0  0  0  0  0  0  0  0  0
   -2.5362   -0.0184   -2.9414 H   0  0  0  0  0  0  0  0  0  0  0  0
   -5.0257   -0.0718   -2.8668 H   0  0  0  0  0  0  0  0  0  0  0  0
   -7.0087   -0.3385    0.8540 H   0  0  0  0  0  0  0  0  0  0  0  0
   -6.1640    1.2167    0.5386 H   0  0  0  0  0  0  0  0  0  0  0  0
   -5.0602   -1.4995    1.3485 H   0  0  0  0  0  0  0  0  0  0  0  0
   -4.7657    0.1784    1.9279 H   0  0  0  0  0  0  0  0  0  0  0  0
  1  2  1  0
  2  3  2  0
  3  4  1  0
  4  5  1  0
  5  6  1  0
  6  7  2  0
  6  8  1  0
  8  9  2  0
  9 10  1  0
 10 11  2  0
 11 12  1  0
 12 13  2  0
 12 14  1  0
 14 15  1  0
 14 16  1  0
 14 17  1  0
  3 18  1  0
 18 19  2  0
 19 20  1  0
 20 21  1  0
 21 22  1  0
 22 23  2  0
 22 24  1  0
 24 25  1  0
 25 26  1  0
 26  2  1  0
 13  8  1  0
 26 20  2  0
  1 27  1  0
  1 28  1  0
  1 29  1  0
  4 30  1  0
  4 31  1  0
  5 32  1  0
  9 33  1  0
 10 34  1  0
 11 35  1  0
 13 36  1  0
 18 37  1  0
 19 38  1  0
 21 39  1  0
 24 40  1  0
 24 41  1  0
 25 42  1  0
 25 43  1  0
M  END
$$$$
[H]c1nc(N([H])[H])nc([H])c1-c1noc(C#Cc2c([H])c(C(=O)N([H])c3nnnn3[H])c([H])c([H])c2C([H])([H])[H])n1
     RDKit          3D

 41 44  0  0  0  0  0  0  0  0999 V2000
   -1.6215   -2.5757   -2.0303 C   0  0  0  0  0  0  0  0  0  0  0  0
   -2.4224   -2.0099   -0.9136 C   0  0  0  0  0  0  0  0  0  0  0  0
   -3.6780   -2.5322   -0.6802 C   0  0  0  0  0  0  0  0  0  0  0  0
   -4.4454   -2.0334    0.3433 C   0  0  0  0  0  0  0  0  0  0  0  0
   -3.9545   -1.0184    1.1251 C   0  0  0  0  0  0  0  0  0  0  0  0
   -2.6797   -0.5044    0.8705 C   0  0  0  0  0  0  0  0  0  0  0  0
   -1.8919   -0.9892   -0.1508 C   0  0  0  0  0  0  0  0  0  0  0  0
   -0.5745   -0.4524   -0.4077 C   0  0  0  0  0  0  0  0  0  0  0  0
    0.5262    0.0039   -0.6432 C   0  0  0  0  0  0  0  0  0  0  0  0
    1.8209    0.5508   -0.9448 C   0  0  0  0  0  0  0  0  0  0  0  0
    3.0051    0.2492   -0.3358 N   0  0  0  0  0  0  0  0  0  0  0  0
    3.9880    0.9640   -0.8955 C   0  0  0  0  0  0  0  0  0  0  0  0
    3.3977    1.7041   -1.8499 N   0  0  0  0  0  0  0  0  0  0  0  0
    2.1268    1.4458   -1.8612 O   0  0  0  0  0  0  0  0  0  0  0  0
    5.4046    0.9420   -0.5408 C   0  0  0  0  0  0  0  0  0  0  0  0
    5.8343    0.1146    0.4724 C   0  0  0  0  0  0  0  0  0  0  0  0
    7.1442    0.1060    0.7874 N   0  0  0  0  0  0  0  0  0  0  0  0
    8.0600    0.8638    0.1646 C   0  0  0  0  0  0  0  0  0  0  0  0
    9.4292    0.8494    0.4997 N   0  0  0  0  0  0  0  0  0  0  0  0
    7.6303    1.6671   -0.8221 N   0  0  0  0  0  0  0  0  0  0  0  0
    6.3170    1.7181   -1.1846 C   0  0  0  0  0  0  0  0  0  0  0  0
   -4.7547   -0.5275    2.2079 C   0  0  0  0  0  0  0  0  0  0  0  0
   -4.6076   -1.1321    3.3512 O   0  0  0  0  0  0  0  0  0  0  0  0
   -5.6771    0.5146    2.2126 N   0  0  0  0  0  0  0  0  0  0  0  0
   -6.0745    1.3674    1.1538 C   0  0  0  0  0  0  0  0  0  0  0  0
   -6.9990    2.3758    1.2550 N   0  0  0  0  0  0  0  0  0  0  0  0
   -7.1394    2.9742    0.0965 N   0  0  0  0  0  0  0  0  0  0  0  0
   -6.3278    2.3751   -0.7467 N   0  0  0  0  0  0  0  0  0  0  0  0
   -5.6798    1.3969   -0.1023 N   0  0  0  0  0  0  0  0  0  0  0  0
   -0.6934   -3.0535   -1.6494 H   0  0  0  0  0  0  0  0  0  0  0  0
   -1.3316   -1.6961   -2.6731 H   0  0  0  0  0  0  0  0  0  0  0  0
   -2.2169   -3.2687   -2.6377 H   0  0  0  0  0  0  0  0  0  0  0  0
   -4.0919   -3.3402   -1.2878 H   0  0  0  0  0  0  0  0  0  0  0  0
   -5.4461   -2.4509    0.5279 H   0  0  0  0  0  0  0  0  0  0  0  0
   -2.2624    0.2997    1.4718 H   0  0  0  0  0  0  0  0  0  0  0  0
    5.1196   -0.5069    0.9917 H   0  0  0  0  0  0  0  0  0  0  0  0
   10.0440    1.6470    0.2258 H   0  0  0  0  0  0  0  0  0  0  0  0
    9.8788    0.0495    1.0295 H   0  0  0  0  0  0  0  0  0  0  0  0
    6.0127    2.3803   -1.9864 H   0  0  0  0  0  0  0  0  0  0  0  0
   -6.1740    0.7176    3.1517 H   0  0  0  0  0  0  0  0  0  0  0  0
   -4.9952    0.8149   -0.6127 H   0  0  0  0  0  0  0  0  0  0  0  0
  1  2  1  0
  2  3  2  0
  3  4  1  0
  4  5  2  0
  5  6  1  0
  6  7  2  0
  7  8  1  0
  8  9  3  0
  9 10  1  0
 10 11  2  0
 11 12  1  0
 12 13  2  0
 13 14  1  0
 12 15  1  0
 15 16  2  0
 16 17  1  0
 17 18  2  0
 18 19  1  0
 18 20  1  0
 20 21  2  0
  5 22  1  0
 22 23  2  0
 22 24  1  0
 24 25  1  0
 25 26  2  0
 26 27  1  0
 27 28  2  0
 28 29  1  0
  7  2  1  0
 14 10  1  0
 21 15  1  0
 29 25  1  0
  1 30  1  0
  1 31  1  0
  1 32  1  0
  3 33  1  0
  4 34  1  0
  6 35  1  0
 16 36  1  0
 19 37  1  0
 19 38  1  0
 21 39  1  0
 24 40  1  0
 29 41  1  0
M  END
$$$$
[H]c1nc([H])c2c(C(=O)N(C([H])([H])[H])C([H])([H])C([H])([H])C(N([H])[H])(C([H])([H])[H])C([H])([H])[H])c([H])n(-c3c([H])c([H])c(N([H])C(=O)C([H])([H])N4C([H])([H])C([H])([H])C([H])([H])C([H])([H])C4([H])[H])c([H])c3[H])c2c1Cl
     RDKit          3D

 71 74  0  0  0  0  0  0  0  0999 V2000
   -5.1643    2.3090    0.2095 C   0  0  0  0  0  0  0  0  0  0  0  0
   -6.6452    2.2315    0.1017 C   0  0  0  0  0  0  0  0  0  0  0  0
   -7.0417    2.5273   -1.3420 C   0  0  0  0  0  0  0  0  0  0  0  0
   -7.1903    3.3952    0.8668 N   0  0  0  0  0  0  0  0  0  0  0  0
   -7.3115    1.0423    0.6522 C   0  0  0  0  0  0  0  0  0  0  0  0
   -7.0484   -0.3135    0.1646 C   0  0  0  0  0  0  0  0  0  0  0  0
   -5.7571   -0.8718    0.2136 N   0  0  0  0  0  0  0  0  0  0  0  0
   -5.2618   -1.4953    1.4573 C   0  0  0  0  0  0  0  0  0  0  0  0
   -4.8587   -0.8861   -0.8732 C   0  0  0  0  0  0  0  0  0  0  0  0
   -5.1112   -0.4257   -2.0262 O   0  0  0  0  0  0  0  0  0  0  0  0
   -3.5041   -1.4578   -0.7527 C   0  0  0  0  0  0  0  0  0  0  0  0
   -2.3575   -0.8184   -0.3747 C   0  0  0  0  0  0  0  0  0  0  0  0
   -1.3172   -1.6778   -0.3837 N   0  0  0  0  0  0  0  0  0  0  0  0
    0.0401   -1.4134   -0.0533 C   0  0  0  0  0  0  0  0  0  0  0  0
    0.9560   -0.9916   -0.9916 C   0  0  0  0  0  0  0  0  0  0  0  0
    2.2728   -0.7311   -0.6631 C   0  0  0  0  0  0  0  0  0  0  0  0
    2.7568   -0.8748    0.6189 C   0  0  0  0  0  0  0  0  0  0  0  0
    4.0916   -0.6103    1.0038 N   0  0  0  0  0  0  0  0  0  0  0  0
    5.1218   -0.0580    0.2385 C   0  0  0  0  0  0  0  0  0  0  0  0
    5.0556    0.3170   -0.9577 O   0  0  0  0  0  0  0  0  0  0  0  0
    6.4788    0.1272    0.8761 C   0  0  0  0  0  0  0  0  0  0  0  0
    7.3668    0.7022   -0.0700 N   0  0  0  0  0  0  0  0  0  0  0  0
    7.0582    2.0592   -0.4261 C   0  0  0  0  0  0  0  0  0  0  0  0
    8.1738    3.0156   -0.0098 C   0  0  0  0  0  0  0  0  0  0  0  0
    9.3826    2.6897   -0.8508 C   0  0  0  0  0  0  0  0  0  0  0  0
    9.5897    1.2122   -0.8465 C   0  0  0  0  0  0  0  0  0  0  0  0
    8.7581    0.4716    0.1739 C   0  0  0  0  0  0  0  0  0  0  0  0
    1.8194   -1.3051    1.5707 C   0  0  0  0  0  0  0  0  0  0  0  0
    0.5162   -1.5607    1.2348 C   0  0  0  0  0  0  0  0  0  0  0  0
   -1.7857   -2.8744   -0.7671 C   0  0  0  0  0  0  0  0  0  0  0  0
   -1.2042   -4.0993   -0.9551 C   0  0  0  0  0  0  0  0  0  0  0  0
    0.5294   -4.2694   -0.6650 Cl  0  0  0  0  0  0  0  0  0  0  0  0
   -1.9562   -5.1917   -1.3680 C   0  0  0  0  0  0  0  0  0  0  0  0
   -3.2592   -5.0534   -1.5858 N   0  0  0  0  0  0  0  0  0  0  0  0
   -3.8771   -3.8706   -1.4153 C   0  0  0  0  0  0  0  0  0  0  0  0
   -3.1618   -2.7659   -1.0065 C   0  0  0  0  0  0  0  0  0  0  0  0
   -4.8883    3.3520    0.5296 H   0  0  0  0  0  0  0  0  0  0  0  0
   -4.7249    1.6350    0.9659 H   0  0  0  0  0  0  0  0  0  0  0  0
   -4.7023    2.2207   -0.8003 H   0  0  0  0  0  0  0  0  0  0  0  0
   -7.9301    1.9593   -1.6217 H   0  0  0  0  0  0  0  0  0  0  0  0
   -6.1708    2.2550   -1.9888 H   0  0  0  0  0  0  0  0  0  0  0  0
   -7.2142    3.6079   -1.4366 H   0  0  0  0  0  0  0  0  0  0  0  0
   -7.2269    3.0517    1.8566 H   0  0  0  0  0  0  0  0  0  0  0  0
   -8.2067    3.4231    0.5622 H   0  0  0  0  0  0  0  0  0  0  0  0
   -8.4380    1.2323    0.5214 H   0  0  0  0  0  0  0  0  0  0  0  0
   -7.2277    1.0832    1.7842 H   0  0  0  0  0  0  0  0  0  0  0  0
   -7.4439   -0.4296   -0.8895 H   0  0  0  0  0  0  0  0  0  0  0  0
   -7.7254   -1.0110    0.7496 H   0  0  0  0  0  0  0  0  0  0  0  0
   -5.4453   -2.5844    1.3952 H   0  0  0  0  0  0  0  0  0  0  0  0
   -4.1975   -1.2858    1.5374 H   0  0  0  0  0  0  0  0  0  0  0  0
   -5.8341   -1.1215    2.3339 H   0  0  0  0  0  0  0  0  0  0  0  0
   -2.2845    0.2231   -0.1059 H   0  0  0  0  0  0  0  0  0  0  0  0
    0.5815   -0.8762   -2.0042 H   0  0  0  0  0  0  0  0  0  0  0  0
    2.8997   -0.4142   -1.4609 H   0  0  0  0  0  0  0  0  0  0  0  0
    4.3372   -0.8699    2.0079 H   0  0  0  0  0  0  0  0  0  0  0  0
    6.3963    0.6611    1.8375 H   0  0  0  0  0  0  0  0  0  0  0  0
    6.8301   -0.9233    1.0701 H   0  0  0  0  0  0  0  0  0  0  0  0
    6.0721    2.3949   -0.0496 H   0  0  0  0  0  0  0  0  0  0  0  0
    7.0172    2.1167   -1.5333 H   0  0  0  0  0  0  0  0  0  0  0  0
    8.4220    2.8860    1.0698 H   0  0  0  0  0  0  0  0  0  0  0  0
    7.7872    4.0398   -0.2039 H   0  0  0  0  0  0  0  0  0  0  0  0
    9.1754    3.0451   -1.8772 H   0  0  0  0  0  0  0  0  0  0  0  0
   10.2663    3.2294   -0.4264 H   0  0  0  0  0  0  0  0  0  0  0  0
    9.4101    0.8040   -1.8615 H   0  0  0  0  0  0  0  0  0  0  0  0
   10.6553    1.0086   -0.6112 H   0  0  0  0  0  0  0  0  0  0  0  0
    8.9403   -0.6242   -0.0331 H   0  0  0  0  0  0  0  0  0  0  0  0
    9.0907    0.6568    1.1951 H   0  0  0  0  0  0  0  0  0  0  0  0
    2.1882   -1.4240    2.5925 H   0  0  0  0  0  0  0  0  0  0  0  0
   -0.1780   -1.8895    1.9904 H   0  0  0  0  0  0  0  0  0  0  0  0
   -1.4648   -6.1266   -1.5018 H   0  0  0  0  0  0  0  0  0  0  0  0
   -4.9207   -3.7895   -1.5968 H   0  0  0  0  0  0  0  0  0  0  0  0
  1  2  1  0
  2  3  1  0
  2  4  1  0
  2  5  1  0
  5  6  1  0
  6  7  1  0
  7  8  1  0
  7  9  1  0
  9 10  2  0
  9 11  1  0
 11 12  2  0
 12 13  1  0
 13 14  1  0
 14 15  2  0
 15 16  1  0
 16 17  2  0
 17 18  1  0
 18 19  1  0
 19 20  2  0
 19 21  1  0
 21 22  1  0
 22 23  1  0
 23 24  1  0
 24 25  1  0
 25 26  1  0
 26 27  1  0
 17 28  1  0
 28 29  2  0
 13 30  1  0
 30 31  2  0
 31 32  1  0
 31 33  1  0
 33 34  2  0
 34 35  1  0
 35 36  2  0
 36 11  1  0
 29 14  1  0
 36 30  1  0
 27 22  1  0
  1 37  1  0
  1 38  1  0
  1 39  1  0
  3 40  1  0
  3 41  1  0
  3 42  1  0
  4 43  1  0
  4 44  1  0
  5 45  1  0
  5 46  1  0
  6 47  1  0
  6 48  1  0
  8 49  1  0
  8 50  1  0
  8 51  1  0
 12 52  1  0
 15 53  1  0
 16 54  1  0
 18 55  1  0
 21 56  1  0
 21 57  1  0
 23 58  1  0
 23 59  1  0
 24 60  1  0
 24 61  1  0
 25 62  1  0
 25 63  1  0
 26 64  1  0
 26 65  1  0
 27 66  1  0
 27 67  1  0
 28 68  1  0
 29 69  1  0
 33 70  1  0
 35 71  1  0
M  END
$$$$
[H]OC(C(=O)N([H])c1nc([H])c(C(=O)N([H])c2c([H])c([H])c([H])c(C(=O)N(c3c([H])c([H])nc([H])c3[H])C([H])([H])[H])c2[H])c(C2([H])C([H])([H])OC2([H])[H])c1[H])(C([H])([H])[H])C([H])([H])[H]
     RDKit          3D

 63 66  0  0  0  0  0  0  0  0999 V2000
    7.8212    0.8818   -1.8279 C   0  0  0  0  0  0  0  0  0  0  0  0
    7.5281    1.6378   -0.5616 C   0  0  0  0  0  0  0  0  0  0  0  0
    8.4354    1.0744    0.5160 C   0  0  0  0  0  0  0  0  0  0  0  0
    7.8856    2.9742   -0.7422 O   0  0  0  0  0  0  0  0  0  0  0  0
    6.1116    1.5887   -0.1496 C   0  0  0  0  0  0  0  0  0  0  0  0
    5.4618    2.6420   -0.0336 O   0  0  0  0  0  0  0  0  0  0  0  0
    5.5082    0.3293    0.1096 N   0  0  0  0  0  0  0  0  0  0  0  0
    4.1298    0.2749    0.5314 C   0  0  0  0  0  0  0  0  0  0  0  0
    3.5828   -0.9911    0.7787 C   0  0  0  0  0  0  0  0  0  0  0  0
    2.2608   -1.0734    1.2031 C   0  0  0  0  0  0  0  0  0  0  0  0
    1.6981   -2.3640    1.5560 C   0  0  0  0  0  0  0  0  0  0  0  0
    2.4722   -3.5850    1.1434 C   0  0  0  0  0  0  0  0  0  0  0  0
    3.2352   -3.4880    2.3100 O   0  0  0  0  0  0  0  0  0  0  0  0
    2.1466   -2.9027    2.9113 C   0  0  0  0  0  0  0  0  0  0  0  0
    1.5870    0.0882    1.3452 C   0  0  0  0  0  0  0  0  0  0  0  0
    2.1386    1.3340    1.0987 C   0  0  0  0  0  0  0  0  0  0  0  0
    3.4191    1.4108    0.6905 N   0  0  0  0  0  0  0  0  0  0  0  0
    0.1527    0.0916    1.7215 C   0  0  0  0  0  0  0  0  0  0  0  0
   -0.0078    0.6588    2.8621 O   0  0  0  0  0  0  0  0  0  0  0  0
   -0.8431   -0.4266    0.9720 N   0  0  0  0  0  0  0  0  0  0  0  0
   -1.8628   -0.9482    0.2227 C   0  0  0  0  0  0  0  0  0  0  0  0
   -1.6185   -2.0281   -0.6273 C   0  0  0  0  0  0  0  0  0  0  0  0
   -2.5755   -2.4773   -1.4923 C   0  0  0  0  0  0  0  0  0  0  0  0
   -3.8158   -1.8903   -1.5606 C   0  0  0  0  0  0  0  0  0  0  0  0
   -4.1306   -0.7989   -0.7291 C   0  0  0  0  0  0  0  0  0  0  0  0
   -3.1490   -0.3671    0.1300 C   0  0  0  0  0  0  0  0  0  0  0  0
   -5.4242   -0.1516   -0.8573 C   0  0  0  0  0  0  0  0  0  0  0  0
   -6.0898   -0.5572   -1.9138 O   0  0  0  0  0  0  0  0  0  0  0  0
   -6.0623    0.7945   -0.0787 N   0  0  0  0  0  0  0  0  0  0  0  0
   -5.6682    1.2536    1.2178 C   0  0  0  0  0  0  0  0  0  0  0  0
   -7.3068    1.3599   -0.6072 C   0  0  0  0  0  0  0  0  0  0  0  0
   -8.3551    0.5758   -0.9808 C   0  0  0  0  0  0  0  0  0  0  0  0
   -9.5288    1.1263   -1.4801 C   0  0  0  0  0  0  0  0  0  0  0  0
   -9.6030    2.4609   -1.5857 N   0  0  0  0  0  0  0  0  0  0  0  0
   -8.5644    3.2551   -1.2162 C   0  0  0  0  0  0  0  0  0  0  0  0
   -7.3870    2.7312   -0.7169 C   0  0  0  0  0  0  0  0  0  0  0  0
    7.2093    1.2369   -2.6832 H   0  0  0  0  0  0  0  0  0  0  0  0
    8.9203    1.0678   -2.0362 H   0  0  0  0  0  0  0  0  0  0  0  0
    7.6824   -0.2052   -1.6925 H   0  0  0  0  0  0  0  0  0  0  0  0
    8.0580    1.3130    1.5487 H   0  0  0  0  0  0  0  0  0  0  0  0
    9.4115    1.5918    0.4273 H   0  0  0  0  0  0  0  0  0  0  0  0
    8.5394   -0.0237    0.3715 H   0  0  0  0  0  0  0  0  0  0  0  0
    8.6821    3.0888   -1.3359 H   0  0  0  0  0  0  0  0  0  0  0  0
    6.0724   -0.5288    0.0012 H   0  0  0  0  0  0  0  0  0  0  0  0
    4.2299   -1.8374    0.6207 H   0  0  0  0  0  0  0  0  0  0  0  0
    0.6143   -2.5038    1.4002 H   0  0  0  0  0  0  0  0  0  0  0  0
    3.1205   -3.4855    0.2618 H   0  0  0  0  0  0  0  0  0  0  0  0
    1.8579   -4.5112    1.1269 H   0  0  0  0  0  0  0  0  0  0  0  0
    2.3236   -2.1606    3.6762 H   0  0  0  0  0  0  0  0  0  0  0  0
    1.4385   -3.6721    3.2598 H   0  0  0  0  0  0  0  0  0  0  0  0
    1.5867    2.2469    1.2202 H   0  0  0  0  0  0  0  0  0  0  0  0
   -1.6816   -0.3351    2.0685 H   0  0  0  0  0  0  0  0  0  0  0  0
   -0.6254   -2.4852   -0.5629 H   0  0  0  0  0  0  0  0  0  0  0  0
   -2.3625   -3.3266   -2.1546 H   0  0  0  0  0  0  0  0  0  0  0  0
   -4.5647   -2.2366   -2.2325 H   0  0  0  0  0  0  0  0  0  0  0  0
   -3.2820    0.4709    0.7852 H   0  0  0  0  0  0  0  0  0  0  0  0
   -5.3515    0.3774    1.8664 H   0  0  0  0  0  0  0  0  0  0  0  0
   -4.9198    2.0467    1.1457 H   0  0  0  0  0  0  0  0  0  0  0  0
   -6.5701    1.6569    1.7701 H   0  0  0  0  0  0  0  0  0  0  0  0
   -8.3162   -0.4904   -0.9064 H   0  0  0  0  0  0  0  0  0  0  0  0
  -10.3591    0.5169   -1.7794 H   0  0  0  0  0  0  0  0  0  0  0  0
   -8.6990    4.3137   -1.3305 H   0  0  0  0  0  0  0  0  0  0  0  0
   -6.5969    3.3803   -0.4398 H   0  0  0  0  0  0  0  0  0  0  0  0
  1  2  1  0
  2  3  1  0
  2  4  1  0
  2  5  1  0
  5  6  2  0
  5  7  1  0
  7  8  1  0
  8  9  2  0
  9 10  1  0
 10 11  1  0
 11 12  1  0
 12 13  1  0
 13 14  1  0
 10 15  2  0
 15 16  1  0
 16 17  2  0
 15 18  1  0
 18 19  2  0
 18 20  1  0
 20 21  1  0
 21 22  2  0
 22 23  1  0
 23 24  2  0
 24 25  1  0
 25 26  2  0
 25 27  1  0
 27 28  2  0
 27 29  1  0
 29 30  1  0
 29 31  1  0
 31 32  2  0
 32 33  1  0
 33 34  2  0
 34 35  1  0
 35 36  2  0
 17  8  1  0
 26 21  1  0
 36 31  1  0
 14 11  1  0
  1 37  1  0
  1 38  1  0
  1 39  1  0
  3 40  1  0
  3 41  1  0
  3 42  1  0
  4 43  1  0
  7 44  1  0
  9 45  1  0
 11 46  1  0
 12 47  1  0
 12 48  1  0
 14 49  1  0
 14 50  1  0
 16 51  1  0
 20 52  1  0
 22 53  1  0
 23 54  1  0
 24 55  1  0
 26 56  1  0
 30 57  1  0
 30 58  1  0
 30 59  1  0
 32 60  1  0
 33 61  1  0
 35 62  1  0
 36 63  1  0
M  END
$$$$
[H]OC([H])([H])C(c1c([H])nc([H])c(-c2c([H])nc3c(c2[H])c(-c2c([H])nc(N([H])C(=O)[C@]([H])(c4c([H])c([H])c([H])c([H])c4[H])C([H])([H])[H])c(Cl)c2[H])c([H])n3[H])c1[H])(C([H])([H])[H])C([H])([H])[H]
     RDKit          3D

 66 70  0  0  0  0  0  0  0  0999 V2000
    8.1274    2.0420    1.8268 C   0  0  0  0  0  0  0  0  0  0  0  0
    7.4021    1.4555    0.6532 C   0  0  0  0  0  0  0  0  0  0  0  0
    7.4493    2.2868   -0.5760 C   0  0  0  0  0  0  0  0  0  0  0  0
    8.0706    0.1068    0.3205 C   0  0  0  0  0  0  0  0  0  0  0  0
    7.9887   -0.7646    1.3863 O   0  0  0  0  0  0  0  0  0  0  0  0
    5.9945    1.1052    1.0003 C   0  0  0  0  0  0  0  0  0  0  0  0
    5.4260    1.5082    2.1672 C   0  0  0  0  0  0  0  0  0  0  0  0
    4.1679    1.0994    2.4440 N   0  0  0  0  0  0  0  0  0  0  0  0
    3.4469    0.2968    1.6017 C   0  0  0  0  0  0  0  0  0  0  0  0
    3.9719   -0.1411    0.4130 C   0  0  0  0  0  0  0  0  0  0  0  0
    5.2760    0.2895    0.1316 C   0  0  0  0  0  0  0  0  0  0  0  0
    3.2720   -1.0258   -0.5062 C   0  0  0  0  0  0  0  0  0  0  0  0
    4.0277   -1.8982   -1.3065 C   0  0  0  0  0  0  0  0  0  0  0  0
    3.4907   -2.7374   -2.1931 N   0  0  0  0  0  0  0  0  0  0  0  0
    2.1667   -2.7882   -2.3647 C   0  0  0  0  0  0  0  0  0  0  0  0
    1.3328   -3.4981   -3.1571 N   0  0  0  0  0  0  0  0  0  0  0  0
    0.0648   -3.1586   -2.9357 C   0  0  0  0  0  0  0  0  0  0  0  0
    0.0481   -2.1640   -1.9381 C   0  0  0  0  0  0  0  0  0  0  0  0
   -1.1716   -1.5789   -1.3902 C   0  0  0  0  0  0  0  0  0  0  0  0
   -1.9214   -0.6762   -2.1455 C   0  0  0  0  0  0  0  0  0  0  0  0
   -3.0788   -0.2518   -1.6439 N   0  0  0  0  0  0  0  0  0  0  0  0
   -3.5931   -0.6292   -0.4523 C   0  0  0  0  0  0  0  0  0  0  0  0
   -4.9054   -0.1971   -0.0573 N   0  0  0  0  0  0  0  0  0  0  0  0
   -5.6174    0.7589   -0.7949 C   0  0  0  0  0  0  0  0  0  0  0  0
   -4.9337    1.3043   -1.7638 O   0  0  0  0  0  0  0  0  0  0  0  0
   -7.0057    1.1934   -0.6038 C   0  0  1  0  0  0  0  0  0  0  0  0
   -7.9321    0.6640   -1.6961 C   0  0  0  0  0  0  0  0  0  0  0  0
   -7.5950    1.1220    0.7307 C   0  0  0  0  0  0  0  0  0  0  0  0
   -8.0010   -0.0923    1.2844 C   0  0  0  0  0  0  0  0  0  0  0  0
   -8.6053   -0.1702    2.5176 C   0  0  0  0  0  0  0  0  0  0  0  0
   -8.8366    0.9698    3.2632 C   0  0  0  0  0  0  0  0  0  0  0  0
   -8.4475    2.2043    2.7547 C   0  0  0  0  0  0  0  0  0  0  0  0
   -7.8427    2.2391    1.5099 C   0  0  0  0  0  0  0  0  0  0  0  0
   -2.8643   -1.5159    0.3005 C   0  0  0  0  0  0  0  0  0  0  0  0
   -3.4620   -2.0510    1.8819 Cl  0  0  0  0  0  0  0  0  0  0  0  0
   -1.6660   -1.9767   -0.1770 C   0  0  0  0  0  0  0  0  0  0  0  0
    1.3350   -1.9516   -1.6014 C   0  0  0  0  0  0  0  0  0  0  0  0
    1.9141   -1.0695   -0.6693 C   0  0  0  0  0  0  0  0  0  0  0  0
    8.1375    1.2845    2.6384 H   0  0  0  0  0  0  0  0  0  0  0  0
    9.2072    2.1107    1.5097 H   0  0  0  0  0  0  0  0  0  0  0  0
    7.6988    3.0130    2.1099 H   0  0  0  0  0  0  0  0  0  0  0  0
    6.8526    1.8778   -1.3908 H   0  0  0  0  0  0  0  0  0  0  0  0
    7.2109    3.3445   -0.3417 H   0  0  0  0  0  0  0  0  0  0  0  0
    8.5125    2.2938   -0.9777 H   0  0  0  0  0  0  0  0  0  0  0  0
    7.6436   -0.3619   -0.5741 H   0  0  0  0  0  0  0  0  0  0  0  0
    9.1663    0.3158    0.2030 H   0  0  0  0  0  0  0  0  0  0  0  0
    8.2722   -1.6422    1.0633 H   0  0  0  0  0  0  0  0  0  0  0  0
    5.9523    2.1500    2.8882 H   0  0  0  0  0  0  0  0  0  0  0  0
    2.4334   -0.0082    1.8618 H   0  0  0  0  0  0  0  0  0  0  0  0
    5.7035   -0.0327   -0.8028 H   0  0  0  0  0  0  0  0  0  0  0  0
    5.1020   -1.8650   -1.1626 H   0  0  0  0  0  0  0  0  0  0  0  0
    1.6697   -4.2260   -3.8553 H   0  0  0  0  0  0  0  0  0  0  0  0
   -0.8406   -3.5329   -3.4014 H   0  0  0  0  0  0  0  0  0  0  0  0
   -1.5164   -0.3633   -3.0977 H   0  0  0  0  0  0  0  0  0  0  0  0
   -5.3528   -0.6748    0.7467 H   0  0  0  0  0  0  0  0  0  0  0  0
   -6.9634    2.3197   -0.8384 H   0  0  0  0  0  0  0  0  0  0  0  0
   -8.8245    1.2924   -1.8515 H   0  0  0  0  0  0  0  0  0  0  0  0
   -8.2051   -0.3789   -1.5356 H   0  0  0  0  0  0  0  0  0  0  0  0
   -7.3112    0.7093   -2.6377 H   0  0  0  0  0  0  0  0  0  0  0  0
   -7.8364   -0.9834    0.7202 H   0  0  0  0  0  0  0  0  0  0  0  0
   -8.9285   -1.1263    2.9390 H   0  0  0  0  0  0  0  0  0  0  0  0
   -9.3176    0.9410    4.2358 H   0  0  0  0  0  0  0  0  0  0  0  0
   -8.6236    3.1048    3.3236 H   0  0  0  0  0  0  0  0  0  0  0  0
   -7.5258    3.2114    1.1100 H   0  0  0  0  0  0  0  0  0  0  0  0
   -1.1147   -2.6577    0.4354 H   0  0  0  0  0  0  0  0  0  0  0  0
    1.3046   -0.4249   -0.0858 H   0  0  0  0  0  0  0  0  0  0  0  0
  1  2  1  0
  2  3  1  0
  2  4  1  0
  4  5  1  0
  2  6  1  0
  6  7  2  0
  7  8  1  0
  8  9  2  0
  9 10  1  0
 10 11  2  0
 10 12  1  0
 12 13  2  0
 13 14  1  0
 14 15  2  0
 15 16  1  0
 16 17  1  0
 17 18  2  0
 18 19  1  0
 19 20  2  0
 20 21  1  0
 21 22  2  0
 22 23  1  0
 23 24  1  0
 24 25  2  0
 24 26  1  0
 26 27  1  0
 26 28  1  0
 28 29  2  0
 29 30  1  0
 30 31  2  0
 31 32  1  0
 32 33  2  0
 22 34  1  0
 34 35  1  0
 34 36  2  0
 18 37  1  0
 37 38  2  0
 11  6  1  0
 38 12  1  0
 37 15  1  0
 36 19  1  0
 33 28  1  0
  1 39  1  0
  1 40  1  0
  1 41  1  0
  3 42  1  0
  3 43  1  0
  3 44  1  0
  4 45  1  0
  4 46  1  0
  5 47  1  0
  7 48  1  0
  9 49  1  0
 11 50  1  0
 13 51  1  0
 16 52  1  0
 17 53  1  0
 20 54  1  0
 23 55  1  0
 26 56  1  6
 27 57  1  0
 27 58  1  0
 27 59  1  0
 29 60  1  0
 30 61  1  0
 31 62  1  0
 32 63  1  0
 33 64  1  0
 36 65  1  0
 38 66  1  0
M  END
$$$$
[H]c1nc([H])n(C([H])([H])c2c([H])c([H])c([H])c(-c3nc(N4C([H])([H])C(=O)N(C([H])([H])c5c([H])c([H])c([H])c([H])c5[H])C([H])([H])[C@]4([H])C([H])([H])[H])c(C(=O)N([H])[H])s3)c2[H])c1[H]
     RDKit          3D

 61 65  0  0  0  0  0  0  0  0999 V2000
    1.4457   -1.2368   -1.5646 C   0  0  0  0  0  0  0  0  0  0  0  0
    2.2754   -0.7673   -0.3778 C   0  0  1  0  0  0  0  0  0  0  0  0
    2.7426    0.6642   -0.6165 C   0  0  0  0  0  0  0  0  0  0  0  0
    3.5264    1.0531    0.5444 N   0  0  0  0  0  0  0  0  0  0  0  0
    4.4341    2.1477    0.4362 C   0  0  0  0  0  0  0  0  0  0  0  0
    5.8043    1.7673    0.0125 C   0  0  0  0  0  0  0  0  0  0  0  0
    6.1147    0.4549   -0.1862 C   0  0  0  0  0  0  0  0  0  0  0  0
    7.4081    0.1453   -0.5820 C   0  0  0  0  0  0  0  0  0  0  0  0
    8.3367    1.1382   -0.7635 C   0  0  0  0  0  0  0  0  0  0  0  0
    7.9941    2.4428   -0.5564 C   0  0  0  0  0  0  0  0  0  0  0  0
    6.7142    2.7836   -0.1623 C   0  0  0  0  0  0  0  0  0  0  0  0
    3.3992    0.3627    1.7822 C   0  0  0  0  0  0  0  0  0  0  0  0
    4.3060    0.4937    2.6324 O   0  0  0  0  0  0  0  0  0  0  0  0
    2.2306   -0.4991    2.0848 C   0  0  0  0  0  0  0  0  0  0  0  0
    1.5617   -0.7965    0.8568 N   0  0  0  0  0  0  0  0  0  0  0  0
    0.1554   -1.1613    0.8125 C   0  0  0  0  0  0  0  0  0  0  0  0
   -0.7692   -0.2461    0.8151 N   0  0  0  0  0  0  0  0  0  0  0  0
   -2.0364   -0.5777    0.7324 C   0  0  0  0  0  0  0  0  0  0  0  0
   -1.9694   -2.2738    0.6444 S   0  0  0  0  0  0  0  0  0  0  0  0
   -0.2484   -2.4712    0.7227 C   0  0  0  0  0  0  0  0  0  0  0  0
    0.5148   -3.7224    0.7321 C   0  0  0  0  0  0  0  0  0  0  0  0
   -0.2118   -4.9223    0.5328 N   0  0  0  0  0  0  0  0  0  0  0  0
    1.7430   -3.7819    0.9028 O   0  0  0  0  0  0  0  0  0  0  0  0
   -3.2050    0.2960    0.7156 C   0  0  0  0  0  0  0  0  0  0  0  0
   -3.0699    1.6639    0.8062 C   0  0  0  0  0  0  0  0  0  0  0  0
   -4.1644    2.5039    0.7874 C   0  0  0  0  0  0  0  0  0  0  0  0
   -5.4239    1.9521    0.6745 C   0  0  0  0  0  0  0  0  0  0  0  0
   -5.6064    0.5830    0.5805 C   0  0  0  0  0  0  0  0  0  0  0  0
   -6.9670   -0.0150    0.4547 C   0  0  0  0  0  0  0  0  0  0  0  0
   -7.3882   -0.1697   -0.8928 N   0  0  0  0  0  0  0  0  0  0  0  0
   -8.0583    0.7281   -1.6228 C   0  0  0  0  0  0  0  0  0  0  0  0
   -8.2752    0.1993   -2.8738 C   0  0  0  0  0  0  0  0  0  0  0  0
   -7.7263   -1.0386   -2.8993 N   0  0  0  0  0  0  0  0  0  0  0  0
   -7.1925   -1.2351   -1.6748 C   0  0  0  0  0  0  0  0  0  0  0  0
   -4.4843   -0.2040    0.6047 C   0  0  0  0  0  0  0  0  0  0  0  0
    1.7969   -0.6223   -2.4329 H   0  0  0  0  0  0  0  0  0  0  0  0
    0.3798   -1.0458   -1.4584 H   0  0  0  0  0  0  0  0  0  0  0  0
    1.7238   -2.2685   -1.7804 H   0  0  0  0  0  0  0  0  0  0  0  0
    3.1932   -1.3773   -0.3556 H   0  0  0  0  0  0  0  0  0  0  0  0
    1.8747    1.3443   -0.7825 H   0  0  0  0  0  0  0  0  0  0  0  0
    3.3326    0.6509   -1.5486 H   0  0  0  0  0  0  0  0  0  0  0  0
    4.4904    2.7430    1.3945 H   0  0  0  0  0  0  0  0  0  0  0  0
    4.0817    2.9109   -0.3162 H   0  0  0  0  0  0  0  0  0  0  0  0
    5.3836   -0.3574   -0.0455 H   0  0  0  0  0  0  0  0  0  0  0  0
    7.6678   -0.9036   -0.7448 H   0  0  0  0  0  0  0  0  0  0  0  0
    9.3414    0.8298   -1.0759 H   0  0  0  0  0  0  0  0  0  0  0  0
    8.7276    3.2329   -0.7004 H   0  0  0  0  0  0  0  0  0  0  0  0
    6.4376    3.8390    0.0044 H   0  0  0  0  0  0  0  0  0  0  0  0
    1.5225    0.0030    2.7853 H   0  0  0  0  0  0  0  0  0  0  0  0
    2.5457   -1.4179    2.6372 H   0  0  0  0  0  0  0  0  0  0  0  0
    0.1788   -5.6805   -0.0534 H   0  0  0  0  0  0  0  0  0  0  0  0
   -1.1486   -5.0793    0.9622 H   0  0  0  0  0  0  0  0  0  0  0  0
   -2.0462    2.0593    0.8948 H   0  0  0  0  0  0  0  0  0  0  0  0
   -3.9706    3.5636    0.8629 H   0  0  0  0  0  0  0  0  0  0  0  0
   -6.3027    2.6120    0.6580 H   0  0  0  0  0  0  0  0  0  0  0  0
   -6.9907   -0.9702    1.0412 H   0  0  0  0  0  0  0  0  0  0  0  0
   -7.6498    0.6826    1.0214 H   0  0  0  0  0  0  0  0  0  0  0  0
   -8.4051    1.7215   -1.3454 H   0  0  0  0  0  0  0  0  0  0  0  0
   -8.8004    0.7050   -3.6930 H   0  0  0  0  0  0  0  0  0  0  0  0
   -6.6829   -2.1730   -1.4367 H   0  0  0  0  0  0  0  0  0  0  0  0
   -4.5913   -1.2631    0.5348 H   0  0  0  0  0  0  0  0  0  0  0  0
  1  2  1  0
  2  3  1  0
  3  4  1  0
  4  5  1  0
  5  6  1  0
  6  7  2  0
  7  8  1  0
  8  9  2  0
  9 10  1  0
 10 11  2  0
  4 12  1  0
 12 13  2  0
 12 14  1  0
 14 15  1  0
 15 16  1  0
 16 17  1  0
 17 18  2  0
 18 19  1  0
 19 20  1  0
 20 21  1  0
 21 22  1  0
 21 23  2  0
 18 24  1  0
 24 25  2  0
 25 26  1  0
 26 27  2  0
 27 28  1  0
 28 29  1  0
 29 30  1  0
 30 31  1  0
 31 32  2  0
 32 33  1  0
 33 34  2  0
 28 35  2  0
 15  2  1  0
 20 16  2  0
 35 24  1  0
 11  6  1  0
 34 30  1  0
  1 36  1  0
  1 37  1  0
  1 38  1  0
  2 39  1  1
  3 40  1  0
  3 41  1  0
  5 42  1  0
  5 43  1  0
  7 44  1  0
  8 45  1  0
  9 46  1  0
 10 47  1  0
 11 48  1  0
 14 49  1  0
 14 50  1  0
 22 51  1  0
 22 52  1  0
 25 53  1  0
 26 54  1  0
 27 55  1  0
 29 56  1  0
 29 57  1  0
 31 58  1  0
 32 59  1  0
 34 60  1  0
 35 61  1  0
M  END
$$$$
[H]c1nc(N([H])C([H])([H])C2([H])C([H])([H])C([H])([H])OC([H])([H])C2([H])[H])c(N([H])C(=O)N(C([H])([H])[H])C([H])([H])C([H])([H])N2C([H])([H])C([H])([H])OC([H])([H])C2([H])[H])nc1C([H])(C(=O)N([H])c1c([H])n(C([H])([H])[H])c2c([H])c([H])c([H])c([H])c12)[C@@]1([H])OC([H])([H])C([H])([H])C1([H])[H]
     RDKit          3D

 92 97  0  0  0  0  0  0  0  0999 V2000
   -4.9053   -0.8572   -1.0667 C   0  0  0  0  0  0  0  0  0  0  0  0
   -3.7793   -1.6619   -1.4584 N   0  0  0  0  0  0  0  0  0  0  0  0
   -3.9354   -3.0049   -1.9721 C   0  0  0  0  0  0  0  0  0  0  0  0
   -3.8832   -3.9634   -0.7996 C   0  0  0  0  0  0  0  0  0  0  0  0
   -4.8777   -3.7954    0.1721 N   0  0  0  0  0  0  0  0  0  0  0  0
   -6.2139   -4.1162   -0.1496 C   0  0  0  0  0  0  0  0  0  0  0  0
   -7.0821   -3.9027    1.0792 C   0  0  0  0  0  0  0  0  0  0  0  0
   -6.6187   -4.7022    2.0914 O   0  0  0  0  0  0  0  0  0  0  0  0
   -5.2876   -4.6056    2.3909 C   0  0  0  0  0  0  0  0  0  0  0  0
   -4.5054   -3.6757    1.5240 C   0  0  0  0  0  0  0  0  0  0  0  0
   -2.4735   -1.1243   -1.3370 C   0  0  0  0  0  0  0  0  0  0  0  0
   -1.5061   -1.8278   -1.6926 O   0  0  0  0  0  0  0  0  0  0  0  0
   -2.2650    0.2110   -0.8117 N   0  0  0  0  0  0  0  0  0  0  0  0
   -0.9247    0.6708   -0.7315 C   0  0  0  0  0  0  0  0  0  0  0  0
    0.0998   -0.0999   -1.1421 N   0  0  0  0  0  0  0  0  0  0  0  0
    1.3888    0.3267   -1.0810 C   0  0  0  0  0  0  0  0  0  0  0  0
    1.6913    1.5711   -0.5923 C   0  0  0  0  0  0  0  0  0  0  0  0
    0.6698    2.3355   -0.1841 N   0  0  0  0  0  0  0  0  0  0  0  0
   -0.6226    1.9171   -0.2420 C   0  0  0  0  0  0  0  0  0  0  0  0
   -1.6718    2.7673    0.2159 N   0  0  0  0  0  0  0  0  0  0  0  0
   -1.3569    4.0941    0.7174 C   0  0  0  0  0  0  0  0  0  0  0  0
   -0.8094    5.0198   -0.3366 C   0  0  0  0  0  0  0  0  0  0  0  0
   -0.5364    6.3575    0.3525 C   0  0  0  0  0  0  0  0  0  0  0  0
   -1.8015    7.1530    0.3350 C   0  0  0  0  0  0  0  0  0  0  0  0
   -2.0363    7.6192   -0.9500 O   0  0  0  0  0  0  0  0  0  0  0  0
   -1.8525    6.6515   -1.9186 C   0  0  0  0  0  0  0  0  0  0  0  0
   -1.9024    5.2456   -1.3638 C   0  0  0  0  0  0  0  0  0  0  0  0
    2.4601   -0.5573   -1.5744 C   0  0  0  0  0  0  0  0  0  0  0  0
    3.4312    0.2331   -2.3821 C   0  0  2  0  0  0  0  0  0  0  0  0
    2.6796    0.8425   -3.5447 C   0  0  0  0  0  0  0  0  0  0  0  0
    3.5106    0.3831   -4.7230 C   0  0  0  0  0  0  0  0  0  0  0  0
    4.0456   -0.9398   -4.1789 C   0  0  0  0  0  0  0  0  0  0  0  0
    4.4553   -0.5461   -2.9150 O   0  0  0  0  0  0  0  0  0  0  0  0
    3.0633   -1.3318   -0.4647 C   0  0  0  0  0  0  0  0  0  0  0  0
    2.8881   -2.5820   -0.4235 O   0  0  0  0  0  0  0  0  0  0  0  0
    3.8363   -0.7435    0.5615 N   0  0  0  0  0  0  0  0  0  0  0  0
    4.4364   -1.4372    1.6442 C   0  0  0  0  0  0  0  0  0  0  0  0
    4.4202   -2.7476    2.0115 C   0  0  0  0  0  0  0  0  0  0  0  0
    5.1379   -2.9286    3.1161 N   0  0  0  0  0  0  0  0  0  0  0  0
    5.3524   -4.2031    3.8111 C   0  0  0  0  0  0  0  0  0  0  0  0
    5.6395   -1.7563    3.4994 C   0  0  0  0  0  0  0  0  0  0  0  0
    6.4515   -1.4001    4.5736 C   0  0  0  0  0  0  0  0  0  0  0  0
    6.8217   -0.0794    4.7140 C   0  0  0  0  0  0  0  0  0  0  0  0
    6.4010    0.8697    3.8158 C   0  0  0  0  0  0  0  0  0  0  0  0
    5.5989    0.5309    2.7508 C   0  0  0  0  0  0  0  0  0  0  0  0
    5.2247   -0.8037    2.6086 C   0  0  0  0  0  0  0  0  0  0  0  0
   -5.8368   -1.3053   -1.4944 H   0  0  0  0  0  0  0  0  0  0  0  0
   -4.9987   -0.8443    0.0339 H   0  0  0  0  0  0  0  0  0  0  0  0
   -4.8043    0.1931   -1.4311 H   0  0  0  0  0  0  0  0  0  0  0  0
   -3.0909   -3.1930   -2.6645 H   0  0  0  0  0  0  0  0  0  0  0  0
   -4.8646   -3.1199   -2.5547 H   0  0  0  0  0  0  0  0  0  0  0  0
   -3.9694   -4.9900   -1.2412 H   0  0  0  0  0  0  0  0  0  0  0  0
   -2.8847   -3.9423   -0.3132 H   0  0  0  0  0  0  0  0  0  0  0  0
   -6.2516   -5.2061   -0.4040 H   0  0  0  0  0  0  0  0  0  0  0  0
   -6.5748   -3.5190   -0.9975 H   0  0  0  0  0  0  0  0  0  0  0  0
   -8.0965   -4.2324    0.8048 H   0  0  0  0  0  0  0  0  0  0  0  0
   -7.0963   -2.8218    1.3128 H   0  0  0  0  0  0  0  0  0  0  0  0
   -5.1971   -4.2450    3.4415 H   0  0  0  0  0  0  0  0  0  0  0  0
   -4.8255   -5.6222    2.3265 H   0  0  0  0  0  0  0  0  0  0  0  0
   -3.4216   -3.9619    1.6092 H   0  0  0  0  0  0  0  0  0  0  0  0
   -4.5997   -2.6380    1.9284 H   0  0  0  0  0  0  0  0  0  0  0  0
   -3.0913    0.7538   -0.5311 H   0  0  0  0  0  0  0  0  0  0  0  0
    2.7281    1.9543   -0.5364 H   0  0  0  0  0  0  0  0  0  0  0  0
   -2.6485    2.4643    0.2016 H   0  0  0  0  0  0  0  0  0  0  0  0
   -2.2884    4.5791    1.1163 H   0  0  0  0  0  0  0  0  0  0  0  0
   -0.6743    4.0456    1.5954 H   0  0  0  0  0  0  0  0  0  0  0  0
    0.1335    4.7297   -0.7881 H   0  0  0  0  0  0  0  0  0  0  0  0
    0.2470    6.8973   -0.2176 H   0  0  0  0  0  0  0  0  0  0  0  0
   -0.1620    6.1265    1.3683 H   0  0  0  0  0  0  0  0  0  0  0  0
   -2.6177    6.5599    0.7438 H   0  0  0  0  0  0  0  0  0  0  0  0
   -1.6296    8.0654    0.9666 H   0  0  0  0  0  0  0  0  0  0  0  0
   -0.8943    6.7447   -2.4638 H   0  0  0  0  0  0  0  0  0  0  0  0
   -2.6629    6.7435   -2.6626 H   0  0  0  0  0  0  0  0  0  0  0  0
   -1.7359    4.5597   -2.2263 H   0  0  0  0  0  0  0  0  0  0  0  0
   -2.9101    5.0044   -0.9617 H   0  0  0  0  0  0  0  0  0  0  0  0
    1.9585   -1.2644   -2.2927 H   0  0  0  0  0  0  0  0  0  0  0  0
    3.9338    1.0618   -1.8600 H   0  0  0  0  0  0  0  0  0  0  0  0
    1.6854    0.3523   -3.6624 H   0  0  0  0  0  0  0  0  0  0  0  0
    2.6061    1.9329   -3.4793 H   0  0  0  0  0  0  0  0  0  0  0  0
    4.3437    1.0946   -4.8363 H   0  0  0  0  0  0  0  0  0  0  0  0
    2.9219    0.2448   -5.6418 H   0  0  0  0  0  0  0  0  0  0  0  0
    3.2275   -1.6628   -4.0688 H   0  0  0  0  0  0  0  0  0  0  0  0
    4.9086   -1.3018   -4.7541 H   0  0  0  0  0  0  0  0  0  0  0  0
    3.9686    0.2955    0.4936 H   0  0  0  0  0  0  0  0  0  0  0  0
    3.9011   -3.5492    1.4919 H   0  0  0  0  0  0  0  0  0  0  0  0
    4.4620   -4.5115    4.3925 H   0  0  0  0  0  0  0  0  0  0  0  0
    5.5724   -5.0181    3.0946 H   0  0  0  0  0  0  0  0  0  0  0  0
    6.2353   -4.0974    4.4909 H   0  0  0  0  0  0  0  0  0  0  0  0
    6.7463   -2.1749    5.2365 H   0  0  0  0  0  0  0  0  0  0  0  0
    7.4495    0.2276    5.5370 H   0  0  0  0  0  0  0  0  0  0  0  0
    6.6823    1.9194    3.9110 H   0  0  0  0  0  0  0  0  0  0  0  0
    5.2598    1.2655    2.0369 H   0  0  0  0  0  0  0  0  0  0  0  0
  1  2  1  0
  2  3  1  0
  3  4  1  0
  4  5  1  0
  5  6  1  0
  6  7  1  0
  7  8  1  0
  8  9  1  0
  9 10  1  0
  2 11  1  0
 11 12  2  0
 11 13  1  0
 13 14  1  0
 14 15  2  0
 15 16  1  0
 16 17  2  0
 17 18  1  0
 18 19  2  0
 19 20  1  0
 20 21  1  0
 21 22  1  0
 22 23  1  0
 23 24  1  0
 24 25  1  0
 25 26  1  0
 26 27  1  0
 16 28  1  0
 28 29  1  0
 29 30  1  0
 30 31  1  0
 31 32  1  0
 32 33  1  0
 28 34  1  0
 34 35  2  0
 34 36  1  0
 36 37  1  0
 37 38  2  0
 38 39  1  0
 39 40  1  0
 39 41  1  0
 41 42  2  0
 42 43  1  0
 43 44  2  0
 44 45  1  0
 45 46  2  0
 10  5  1  0
 19 14  1  0
 27 22  1  0
 33 29  1  0
 46 37  1  0
 46 41  1  0
  1 47  1  0
  1 48  1  0
  1 49  1  0
  3 50  1  0
  3 51  1  0
  4 52  1  0
  4 53  1  0
  6 54  1  0
  6 55  1  0
  7 56  1  0
  7 57  1  0
  9 58  1  0
  9 59  1  0
 10 60  1  0
 10 61  1  0
 13 62  1  0
 17 63  1  0
 20 64  1  0
 21 65  1  0
 21 66  1  0
 22 67  1  0
 23 68  1  0
 23 69  1  0
 24 70  1  0
 24 71  1  0
 26 72  1  0
 26 73  1  0
 27 74  1  0
 27 75  1  0
 28 76  1  0
 29 77  1  1
 30 78  1  0
 30 79  1  0
 31 80  1  0
 31 81  1  0
 32 82  1  0
 32 83  1  0
 36 84  1  0
 38 85  1  0
 40 86  1  0
 40 87  1  0
 40 88  1  0
 42 89  1  0
 43 90  1  0
 44 91  1  0
 45 92  1  0
M  END
$$$$
[H]c1c([H])c([H])c(C([H])([H])N([H])c2nc(N([H])c3c([H])c([H])c(C(=O)OC([H])([H])C([H])([H])[H])c([H])c3[H])n(C([H])([H])[H])n2)c([H])c1[H]
     RDKit          3D

 47 49  0  0  0  0  0  0  0  0999 V2000
    8.3980   -0.7706   -0.9438 C   0  0  0  0  0  0  0  0  0  0  0  0
    8.1126    0.6954   -1.1509 C   0  0  0  0  0  0  0  0  0  0  0  0
    6.7010    0.8739   -0.9594 O   0  0  0  0  0  0  0  0  0  0  0  0
    6.1345    0.5456    0.2529 C   0  0  0  0  0  0  0  0  0  0  0  0
    6.8831    0.1007    1.1461 O   0  0  0  0  0  0  0  0  0  0  0  0
    4.7034    0.7110    0.4911 C   0  0  0  0  0  0  0  0  0  0  0  0
    3.8695    1.2035   -0.4950 C   0  0  0  0  0  0  0  0  0  0  0  0
    2.5444    1.3363   -0.2165 C   0  0  0  0  0  0  0  0  0  0  0  0
    1.9966    1.0027    1.0015 C   0  0  0  0  0  0  0  0  0  0  0  0
    0.6330    1.1213    1.3325 N   0  0  0  0  0  0  0  0  0  0  0  0
   -0.4579    0.5342    0.7028 C   0  0  0  0  0  0  0  0  0  0  0  0
   -1.7506    0.8535    1.0582 N   0  0  0  0  0  0  0  0  0  0  0  0
   -2.6235    0.1380    0.3414 C   0  0  0  0  0  0  0  0  0  0  0  0
   -4.0467    0.1732    0.4064 N   0  0  0  0  0  0  0  0  0  0  0  0
   -4.8110   -0.6729   -0.4468 C   0  0  0  0  0  0  0  0  0  0  0  0
   -6.2618   -0.5255   -0.2683 C   0  0  0  0  0  0  0  0  0  0  0  0
   -6.8735   -1.3474    0.6730 C   0  0  0  0  0  0  0  0  0  0  0  0
   -8.2082   -1.3011    0.9248 C   0  0  0  0  0  0  0  0  0  0  0  0
   -9.0112   -0.4167    0.2372 C   0  0  0  0  0  0  0  0  0  0  0  0
   -8.4114    0.4019   -0.6981 C   0  0  0  0  0  0  0  0  0  0  0  0
   -7.0501    0.3639   -0.9639 C   0  0  0  0  0  0  0  0  0  0  0  0
   -1.8612   -0.6258   -0.4584 N   0  0  0  0  0  0  0  0  0  0  0  0
   -0.5609   -0.3940   -0.2464 N   0  0  0  0  0  0  0  0  0  0  0  0
    0.5038   -1.0992   -0.9443 C   0  0  0  0  0  0  0  0  0  0  0  0
    2.8646    0.5043    1.9875 C   0  0  0  0  0  0  0  0  0  0  0  0
    4.1825    0.3704    1.7160 C   0  0  0  0  0  0  0  0  0  0  0  0
    7.4636   -1.3811   -1.0599 H   0  0  0  0  0  0  0  0  0  0  0  0
    8.8376   -0.9307    0.0549 H   0  0  0  0  0  0  0  0  0  0  0  0
    9.1375   -1.1287   -1.6843 H   0  0  0  0  0  0  0  0  0  0  0  0
    8.6678    1.2704   -0.3891 H   0  0  0  0  0  0  0  0  0  0  0  0
    8.4004    1.0197   -2.1743 H   0  0  0  0  0  0  0  0  0  0  0  0
    4.3303    1.4593   -1.4493 H   0  0  0  0  0  0  0  0  0  0  0  0
    1.8832    1.7224   -0.9807 H   0  0  0  0  0  0  0  0  0  0  0  0
    0.4476    1.7533    2.1911 H   0  0  0  0  0  0  0  0  0  0  0  0
   -4.4947    0.8158    1.0750 H   0  0  0  0  0  0  0  0  0  0  0  0
   -4.5903   -0.4009   -1.5208 H   0  0  0  0  0  0  0  0  0  0  0  0
   -4.5370   -1.7516   -0.3738 H   0  0  0  0  0  0  0  0  0  0  0  0
   -6.2687   -2.0650    1.2412 H   0  0  0  0  0  0  0  0  0  0  0  0
   -8.6355   -1.9670    1.6722 H   0  0  0  0  0  0  0  0  0  0  0  0
  -10.0737   -0.3877    0.4453 H   0  0  0  0  0  0  0  0  0  0  0  0
   -9.0492    1.1057   -1.2456 H   0  0  0  0  0  0  0  0  0  0  0  0
   -6.5789    1.0004   -1.6923 H   0  0  0  0  0  0  0  0  0  0  0  0
    1.2906   -1.4490   -0.2607 H   0  0  0  0  0  0  0  0  0  0  0  0
    0.8231   -0.6000   -1.8557 H   0  0  0  0  0  0  0  0  0  0  0  0
    0.0410   -2.0819   -1.3162 H   0  0  0  0  0  0  0  0  0  0  0  0
    2.4501    0.2327    2.9638 H   0  0  0  0  0  0  0  0  0  0  0  0
    4.8564   -0.0128    2.4708 H   0  0  0  0  0  0  0  0  0  0  0  0
  1  2  1  0
  2  3  1  0
  3  4  1  0
  4  5  2  0
  4  6  1  0
  6  7  2  0
  7  8  1  0
  8  9  2  0
  9 10  1  0
 10 11  1  0
 11 12  2  0
 12 13  1  0
 13 14  1  0
 14 15  1  0
 15 16  1  0
 16 17  2  0
 17 18  1  0
 18 19  2  0
 19 20  1  0
 20 21  2  0
 13 22  2  0
 22 23  1  0
 23 24  1  0
  9 25  1  0
 25 26  2  0
 26  6  1  0
 23 11  1  0
 21 16  1  0
  1 27  1  0
  1 28  1  0
  1 29  1  0
  2 30  1  0
  2 31  1  0
  7 32  1  0
  8 33  1  0
 10 34  1  0
 14 35  1  0
 15 36  1  0
 15 37  1  0
 17 38  1  0
 18 39  1  0
 19 40  1  0
 20 41  1  0
 21 42  1  0
 24 43  1  0
 24 44  1  0
 24 45  1  0
 25 46  1  0
 26 47  1  0
M  END
$$$$
[H]c1nc(N([H])C([H])([H])[H])nc(-c2c([H])nc(N([H])[H])nc2[H])c1[H]
     RDKit          3D

 25 26  0  0  0  0  0  0  0  0999 V2000
   -3.6037    1.1939   -0.8410 C   0  0  0  0  0  0  0  0  0  0  0  0
   -3.6753    0.1611    0.1525 N   0  0  0  0  0  0  0  0  0  0  0  0
   -2.4813   -0.4694    0.6547 C   0  0  0  0  0  0  0  0  0  0  0  0
   -2.5844   -1.4313    1.5832 N   0  0  0  0  0  0  0  0  0  0  0  0
   -1.4690   -2.0059    2.0386 C   0  0  0  0  0  0  0  0  0  0  0  0
   -0.2272   -1.5955    1.5416 C   0  0  0  0  0  0  0  0  0  0  0  0
   -0.1082   -0.6156    0.5945 C   0  0  0  0  0  0  0  0  0  0  0  0
   -1.2776   -0.0659    0.1675 N   0  0  0  0  0  0  0  0  0  0  0  0
    1.1725   -0.1885    0.0783 C   0  0  0  0  0  0  0  0  0  0  0  0
    1.2071    0.8207   -0.8896 C   0  0  0  0  0  0  0  0  0  0  0  0
    2.3266    1.2804   -1.4234 N   0  0  0  0  0  0  0  0  0  0  0  0
    3.4821    0.7460   -1.0099 C   0  0  0  0  0  0  0  0  0  0  0  0
    4.7193    1.1919   -1.5405 N   0  0  0  0  0  0  0  0  0  0  0  0
    3.5019   -0.2251   -0.0830 N   0  0  0  0  0  0  0  0  0  0  0  0
    2.3680   -0.7116    0.4777 C   0  0  0  0  0  0  0  0  0  0  0  0
   -2.6971    1.1774   -1.4448 H   0  0  0  0  0  0  0  0  0  0  0  0
   -3.7061    2.2021   -0.3494 H   0  0  0  0  0  0  0  0  0  0  0  0
   -4.5100    1.0971   -1.4981 H   0  0  0  0  0  0  0  0  0  0  0  0
   -4.5877   -0.1598    0.5362 H   0  0  0  0  0  0  0  0  0  0  0  0
   -1.5574   -2.7811    2.7874 H   0  0  0  0  0  0  0  0  0  0  0  0
    0.6492   -2.0893    1.9399 H   0  0  0  0  0  0  0  0  0  0  0  0
    0.2623    1.2292   -1.2006 H   0  0  0  0  0  0  0  0  0  0  0  0
    5.5137    0.5388   -1.6750 H   0  0  0  0  0  0  0  0  0  0  0  0
    4.8848    2.1921   -1.8179 H   0  0  0  0  0  0  0  0  0  0  0  0
    2.3976   -1.4917    1.2211 H   0  0  0  0  0  0  0  0  0  0  0  0
  1  2  1  0
  2  3  1  0
  3  4  2  0
  4  5  1  0
  5  6  2  0
  6  7  1  0
  7  8  2  0
  7  9  1  0
  9 10  2  0
 10 11  1  0
 11 12  2  0
 12 13  1  0
 12 14  1  0
 14 15  2  0
  8  3  1  0
 15  9  1  0
  1 16  1  0
  1 17  1  0
  1 18  1  0
  2 19  1  0
  5 20  1  0
  6 21  1  0
 10 22  1  0
 13 23  1  0
 13 24  1  0
 15 25  1  0
M  END
$$$$
[H]OC(=O)[C@]1C([H])([H])C([H])([H])[C@]([H])(OC([H])([H])[H])C([H])([H])C1([H])[H]
     RDKit          3D

 24 24  0  0  0  0  0  0  0  0999 V2000
   -3.2659   -0.9004    0.5945 C   0  0  0  0  0  0  0  0  0  0  0  0
   -2.5636    0.0197   -0.1585 O   0  0  0  0  0  0  0  0  0  0  0  0
   -1.2127   -0.0320   -0.0372 C   0  0  1  0  0  0  0  0  0  0  0  0
   -0.4487   -0.3082   -1.2918 C   0  0  0  0  0  0  0  0  0  0  0  0
    0.9622   -0.6798   -0.8531 C   0  0  0  0  0  0  0  0  0  0  0  0
    1.6239    0.7444   -0.3688 C   0  0  0  0  0  3  0  0  0  0  0  0
    0.7696    0.8475    1.0316 C   0  0  0  0  0  0  0  0  0  0  0  0
   -0.6077    1.2321    0.5735 C   0  0  0  0  0  0  0  0  0  0  0  0
    2.9172    0.0885    0.3018 C   0  0  0  0  0  0  0  0  0  0  0  0
    4.1053    0.6829   -0.0446 O   0  0  0  0  0  0  0  0  0  0  0  0
    2.7506   -0.8612    1.0470 O   0  0  0  0  0  0  0  0  0  0  0  0
   -3.0184   -1.9551    0.3552 H   0  0  0  0  0  0  0  0  0  0  0  0
   -3.2150   -0.6871    1.6849 H   0  0  0  0  0  0  0  0  0  0  0  0
   -4.3491   -0.7793    0.3256 H   0  0  0  0  0  0  0  0  0  0  0  0
   -0.9663   -0.8518    0.6833 H   0  0  0  0  0  0  0  0  0  0  0  0
   -0.8210   -1.1377   -1.8881 H   0  0  0  0  0  0  0  0  0  0  0  0
   -0.3539    0.6084   -1.9423 H   0  0  0  0  0  0  0  0  0  0  0  0
    0.9976   -1.3301    0.0057 H   0  0  0  0  0  0  0  0  0  0  0  0
    1.5895   -0.9853   -1.7096 H   0  0  0  0  0  0  0  0  0  0  0  0
    1.2890    1.6603    1.5762 H   0  0  0  0  0  0  0  0  0  0  0  0
    0.8421   -0.1270    1.4963 H   0  0  0  0  0  0  0  0  0  0  0  0
   -0.4739    2.0004   -0.2330 H   0  0  0  0  0  0  0  0  0  0  0  0
   -1.1898    1.6256    1.4009 H   0  0  0  0  0  0  0  0  0  0  0  0
    4.6388    1.1252    0.6912 H   0  0  0  0  0  0  0  0  0  0  0  0
  1  2  1  0
  2  3  1  0
  3  4  1  0
  4  5  1  0
  5  6  1  0
  6  7  1  0
  7  8  1  0
  6  9  1  1
  9 10  1  0
  9 11  2  0
  8  3  1  0
  1 12  1  0
  1 13  1  0
  1 14  1  0
  3 15  1  1
  4 16  1  0
  4 17  1  0
  5 18  1  0
  5 19  1  0
  7 20  1  0
  7 21  1  0
  8 22  1  0
  8 23  1  0
 10 24  1  0
M  RAD  1   6   2
M  END
$$$$
[H]c1nc(N2C([H])([H])C([H])([H])C([H])(N(C([H])([H])[H])C([H])([H])C(=O)N([H])[H])C([H])([H])C2([H])[H])nc([H])c1Cl
     RDKit          3D

 37 38  0  0  0  0  0  0  0  0999 V2000
    4.8646   -1.2565    0.5152 N   0  0  0  0  0  0  0  0  0  0  0  0
    4.4745   -1.1274   -0.8413 C   0  0  0  0  0  0  0  0  0  0  0  0
    5.2879   -1.5642   -1.7261 O   0  0  0  0  0  0  0  0  0  0  0  0
    3.1893   -0.5194   -1.2795 C   0  0  0  0  0  0  0  0  0  0  0  0
    2.4524   -0.1073   -0.1512 N   0  0  0  0  0  0  0  0  0  0  0  0
    2.9476    0.9725    0.6118 C   0  0  0  0  0  0  0  0  0  0  0  0
    1.0517   -0.2758   -0.1820 C   0  0  0  0  0  0  0  0  0  0  0  0
    0.3379    0.4974   -1.2514 C   0  0  0  0  0  0  0  0  0  0  0  0
   -0.9940    1.0638   -0.8222 C   0  0  0  0  0  0  0  0  0  0  0  0
   -1.6478    0.2963    0.1937 N   0  0  0  0  0  0  0  0  0  0  0  0
   -0.9176   -0.3953    1.2363 C   0  0  0  0  0  0  0  0  0  0  0  0
    0.5017    0.0530    1.1949 C   0  0  0  0  0  0  0  0  0  0  0  0
   -3.0821    0.1702    0.2283 C   0  0  0  0  0  0  0  0  0  0  0  0
   -3.7174   -0.5085    1.2090 N   0  0  0  0  0  0  0  0  0  0  0  0
   -5.0694   -0.6213    1.2276 C   0  0  0  0  0  0  0  0  0  0  0  0
   -5.8423   -0.0502    0.2500 C   0  0  0  0  0  0  0  0  0  0  0  0
   -7.5893   -0.1761    0.2419 Cl  0  0  0  0  0  0  0  0  0  0  0  0
   -5.1785    0.6507   -0.7618 C   0  0  0  0  0  0  0  0  0  0  0  0
   -3.8335    0.7265   -0.7234 N   0  0  0  0  0  0  0  0  0  0  0  0
    5.6281   -0.6411    0.8691 H   0  0  0  0  0  0  0  0  0  0  0  0
    4.3705   -1.9627    1.1037 H   0  0  0  0  0  0  0  0  0  0  0  0
    2.6359   -1.3458   -1.7895 H   0  0  0  0  0  0  0  0  0  0  0  0
    3.3502    0.2763   -2.0596 H   0  0  0  0  0  0  0  0  0  0  0  0
    4.0038    1.2188    0.4280 H   0  0  0  0  0  0  0  0  0  0  0  0
    2.3179    1.8991    0.5168 H   0  0  0  0  0  0  0  0  0  0  0  0
    2.8895    0.7247    1.7123 H   0  0  0  0  0  0  0  0  0  0  0  0
    0.8265   -1.3466   -0.3641 H   0  0  0  0  0  0  0  0  0  0  0  0
    0.9679    1.3570   -1.5947 H   0  0  0  0  0  0  0  0  0  0  0  0
    0.1883   -0.1266   -2.1823 H   0  0  0  0  0  0  0  0  0  0  0  0
   -0.8051    2.0918   -0.4200 H   0  0  0  0  0  0  0  0  0  0  0  0
   -1.6703    1.1161   -1.7116 H   0  0  0  0  0  0  0  0  0  0  0  0
   -1.3420   -0.1720    2.2452 H   0  0  0  0  0  0  0  0  0  0  0  0
   -0.9536   -1.4861    1.0123 H   0  0  0  0  0  0  0  0  0  0  0  0
    1.1057   -0.5215    1.9266 H   0  0  0  0  0  0  0  0  0  0  0  0
    0.5958    1.1485    1.3927 H   0  0  0  0  0  0  0  0  0  0  0  0
   -5.5675   -1.1703    2.0246 H   0  0  0  0  0  0  0  0  0  0  0  0
   -5.7774    1.1122   -1.5498 H   0  0  0  0  0  0  0  0  0  0  0  0
  1  2  1  0
  2  3  2  0
  2  4  1  0
  4  5  1  0
  5  6  1  0
  5  7  1  0
  7  8  1  0
  8  9  1  0
  9 10  1  0
 10 11  1  0
 11 12  1  0
 10 13  1  0
 13 14  2  0
 14 15  1  0
 15 16  2  0
 16 17  1  0
 16 18  1  0
 18 19  2  0
 12  7  1  0
 19 13  1  0
  1 20  1  0
  1 21  1  0
  4 22  1  0
  4 23  1  0
  6 24  1  0
  6 25  1  0
  6 26  1  0
  7 27  1  0
  8 28  1  0
  8 29  1  0
  9 30  1  0
  9 31  1  0
 11 32  1  0
 11 33  1  0
 12 34  1  0
 12 35  1  0
 15 36  1  0
 18 37  1  0
M  END
$$$$
[H]c1nc([H])c(-c2c([H])c([H])c([H])c(C([H])([H])N([H])C(=O)C(N([H])[H])(C([H])([H])[H])C([H])([H])[H])c2[H])c([H])c1[H]
     RDKit          3D

 39 40  0  0  0  0  0  0  0  0999 V2000
   -4.8071    0.0302   -0.2030 C   0  0  0  0  0  0  0  0  0  0  0  0
   -3.6495    0.2089    0.7498 C   0  0  0  0  0  0  0  0  0  0  0  0
   -3.1296    1.6190    0.5888 C   0  0  0  0  0  0  0  0  0  0  0  0
   -4.1687    0.0942    2.0930 N   0  0  0  0  0  0  0  0  0  0  0  0
   -2.5845   -0.8026    0.5383 C   0  0  0  0  0  0  0  0  0  0  0  0
   -2.3045   -1.5651    1.4933 O   0  0  0  0  0  0  0  0  0  0  0  0
   -1.8828   -0.9421   -0.6733 N   0  0  0  0  0  0  0  0  0  0  0  0
   -0.8673   -1.9253   -0.8341 C   0  0  0  0  0  0  0  0  0  0  0  0
    0.4237   -1.6151   -0.1976 C   0  0  0  0  0  0  0  0  0  0  0  0
    0.7848   -2.2772    0.9506 C   0  0  0  0  0  0  0  0  0  0  0  0
    1.9955   -1.9981    1.5711 C   0  0  0  0  0  0  0  0  0  0  0  0
    2.8548   -1.0409    1.0302 C   0  0  0  0  0  0  0  0  0  0  0  0
    2.5091   -0.3669   -0.1212 C   0  0  0  0  0  0  0  0  0  0  0  0
    1.3079   -0.6736   -0.6982 C   0  0  0  0  0  0  0  0  0  0  0  0
    3.4172    0.6323   -0.6766 C   0  0  0  0  0  0  0  0  0  0  0  0
    4.2428    1.4062    0.1042 C   0  0  0  0  0  0  0  0  0  0  0  0
    5.0895    2.3425   -0.4572 C   0  0  0  0  0  0  0  0  0  0  0  0
    5.0810    2.4777   -1.8341 C   0  0  0  0  0  0  0  0  0  0  0  0
    4.2690    1.7181   -2.6172 N   0  0  0  0  0  0  0  0  0  0  0  0
    3.4528    0.8129   -2.0502 C   0  0  0  0  0  0  0  0  0  0  0  0
   -4.4721   -0.3212   -1.2136 H   0  0  0  0  0  0  0  0  0  0  0  0
   -5.5368   -0.7008    0.1978 H   0  0  0  0  0  0  0  0  0  0  0  0
   -5.2925    1.0217   -0.3156 H   0  0  0  0  0  0  0  0  0  0  0  0
   -4.0111    2.2957    0.6712 H   0  0  0  0  0  0  0  0  0  0  0  0
   -2.7098    1.7967   -0.4279 H   0  0  0  0  0  0  0  0  0  0  0  0
   -2.4303    1.9128    1.3762 H   0  0  0  0  0  0  0  0  0  0  0  0
   -4.6650   -0.7976    2.1788 H   0  0  0  0  0  0  0  0  0  0  0  0
   -4.6705    0.9344    2.4023 H   0  0  0  0  0  0  0  0  0  0  0  0
   -2.1337   -0.2971   -1.4533 H   0  0  0  0  0  0  0  0  0  0  0  0
   -1.2052   -2.9210   -0.4453 H   0  0  0  0  0  0  0  0  0  0  0  0
   -0.6360   -2.1207   -1.9207 H   0  0  0  0  0  0  0  0  0  0  0  0
    0.1613   -3.0405    1.4244 H   0  0  0  0  0  0  0  0  0  0  0  0
    2.2448   -2.5377    2.4705 H   0  0  0  0  0  0  0  0  0  0  0  0
    3.7940   -0.8488    1.5431 H   0  0  0  0  0  0  0  0  0  0  0  0
    1.0230   -0.1545   -1.5999 H   0  0  0  0  0  0  0  0  0  0  0  0
    4.2336    1.2857    1.1664 H   0  0  0  0  0  0  0  0  0  0  0  0
    5.7475    2.9630    0.1290 H   0  0  0  0  0  0  0  0  0  0  0  0
    5.7274    3.1971   -2.3061 H   0  0  0  0  0  0  0  0  0  0  0  0
    2.7975    0.1976   -2.6593 H   0  0  0  0  0  0  0  0  0  0  0  0
  1  2  1  0
  2  3  1  0
  2  4  1  0
  2  5  1  0
  5  6  2  0
  5  7  1  0
  7  8  1  0
  8  9  1  0
  9 10  2  0
 10 11  1  0
 11 12  2  0
 12 13  1  0
 13 14  2  0
 13 15  1  0
 15 16  2  0
 16 17  1  0
 17 18  2  0
 18 19  1  0
 19 20  2  0
 14  9  1  0
 20 15  1  0
  1 21  1  0
  1 22  1  0
  1 23  1  0
  3 24  1  0
  3 25  1  0
  3 26  1  0
  4 27  1  0
  4 28  1  0
  7 29  1  0
  8 30  1  0
  8 31  1  0
 10 32  1  0
 11 33  1  0
 12 34  1  0
 14 35  1  0
 16 36  1  0
 17 37  1  0
 18 38  1  0
 20 39  1  0
M  END
$$$$
