[H]c1nnn(C([H])([H])c2c([H])c([H])c([H])c([H])c2[H])c1C([H])([H])[H]
     RDKit          3D

 24 25  0  0  0  0  0  0  0  0999 V2000
   -2.6576    0.7814   -0.3958 C   0  0  0  0  0  0  0  0  0  0  0  0
   -2.1697   -0.4570    0.2660 C   0  0  0  0  0  0  0  0  0  0  0  0
   -2.8387   -1.0161    1.3514 C   0  0  0  0  0  0  0  0  0  0  0  0
   -2.1407   -2.1099    1.6926 N   0  0  0  0  0  0  0  0  0  0  0  0
   -1.1172   -2.2025    0.8651 N   0  0  0  0  0  0  0  0  0  0  0  0
   -1.1116   -1.2122   -0.0098 N   0  0  0  0  0  0  0  0  0  0  0  0
   -0.1263   -1.0164   -1.0494 C   0  0  0  0  0  0  0  0  0  0  0  0
    1.0027   -0.2053   -0.5378 C   0  0  0  0  0  0  0  0  0  0  0  0
    1.0181    1.1473   -0.7255 C   0  0  0  0  0  0  0  0  0  0  0  0
    2.0866    1.9045   -0.2341 C   0  0  0  0  0  0  0  0  0  0  0  0
    3.1176    1.2671    0.4385 C   0  0  0  0  0  0  0  0  0  0  0  0
    3.1181   -0.0983    0.6367 C   0  0  0  0  0  0  0  0  0  0  0  0
    2.0537   -0.8223    0.1429 C   0  0  0  0  0  0  0  0  0  0  0  0
   -3.7588    0.6610   -0.5209 H   0  0  0  0  0  0  0  0  0  0  0  0
   -2.1513    0.9591   -1.3674 H   0  0  0  0  0  0  0  0  0  0  0  0
   -2.5220    1.6819    0.2406 H   0  0  0  0  0  0  0  0  0  0  0  0
   -3.7347   -0.6412    1.8178 H   0  0  0  0  0  0  0  0  0  0  0  0
    0.2526   -2.0423   -1.3222 H   0  0  0  0  0  0  0  0  0  0  0  0
   -0.5509   -0.5071   -1.9363 H   0  0  0  0  0  0  0  0  0  0  0  0
    0.2230    1.6293   -1.2470 H   0  0  0  0  0  0  0  0  0  0  0  0
    2.0926    2.9795   -0.3866 H   0  0  0  0  0  0  0  0  0  0  0  0
    3.9582    1.8137    0.8322 H   0  0  0  0  0  0  0  0  0  0  0  0
    3.9245   -0.5927    1.1621 H   0  0  0  0  0  0  0  0  0  0  0  0
    2.0317   -1.9015    0.2870 H   0  0  0  0  0  0  0  0  0  0  0  0
  1  2  1  0
  2  3  2  0
  3  4  1  0
  4  5  2  0
  5  6  1  0
  6  7  1  0
  7  8  1  0
  8  9  2  0
  9 10  1  0
 10 11  2  0
 11 12  1  0
 12 13  2  0
  6  2  1  0
 13  8  1  0
  1 14  1  0
  1 15  1  0
  1 16  1  0
  3 17  1  0
  7 18  1  0
  7 19  1  0
  9 20  1  0
 10 21  1  0
 11 22  1  0
 12 23  1  0
 13 24  1  0
M  END
$$$$
[H]c1nc2c([H])c(C([H])([H])[H])c(-c3c(C([H])(C([H])([H])[H])C([H])([H])[H])c4c([H])c(C5([H])C([H])([H])C([H])([H])N(C([H])([H])c6nc([H])c([H])c([H])n6)C([H])([H])C5([H])[H])c([H])c([H])c4n3[H])c([H])n2n1
     RDKit          3D

 66 71  0  0  0  0  0  0  0  0999 V2000
   -1.0263   -1.8292   -1.8583 C   0  0  0  0  0  0  0  0  0  0  0  0
   -2.3383   -1.4414   -1.2701 C   0  0  0  0  0  0  0  0  0  0  0  0
   -3.2604   -0.8689   -2.3617 C   0  0  0  0  0  0  0  0  0  0  0  0
   -2.3902   -0.5802   -0.1049 C   0  0  0  0  0  0  0  0  0  0  0  0
   -3.5358   -0.2847    0.6567 C   0  0  0  0  0  0  0  0  0  0  0  0
   -3.1179    0.5959    1.5830 N   0  0  0  0  0  0  0  0  0  0  0  0
   -1.8313    0.8745    1.4722 C   0  0  0  0  0  0  0  0  0  0  0  0
   -0.9989    1.7060    2.1886 C   0  0  0  0  0  0  0  0  0  0  0  0
    0.3338    1.8448    1.8851 C   0  0  0  0  0  0  0  0  0  0  0  0
    0.8829    1.1483    0.8432 C   0  0  0  0  0  0  0  0  0  0  0  0
    0.0273    0.3059    0.1219 C   0  0  0  0  0  0  0  0  0  0  0  0
   -1.3115    0.1512    0.4092 C   0  0  0  0  0  0  0  0  0  0  0  0
    2.2969    1.2434    0.4611 C   0  0  0  0  0  0  0  0  0  0  0  0
    3.2450    0.7093    1.5066 C   0  0  0  0  0  0  0  0  0  0  0  0
    4.6466    1.1117    1.0207 C   0  0  0  0  0  0  0  0  0  0  0  0
    4.6755    1.3064   -0.3916 N   0  0  0  0  0  0  0  0  0  0  0  0
    6.0440    1.4046   -0.8358 C   0  0  0  0  0  0  0  0  0  0  0  0
    6.8597    0.2137   -0.6019 C   0  0  0  0  0  0  0  0  0  0  0  0
    8.1909    0.3059   -0.3138 N   0  0  0  0  0  0  0  0  0  0  0  0
    8.9435   -0.7876   -0.1069 C   0  0  0  0  0  0  0  0  0  0  0  0
    8.3891   -2.0460   -0.1801 C   0  0  0  0  0  0  0  0  0  0  0  0
    7.0457   -2.1467   -0.4704 C   0  0  0  0  0  0  0  0  0  0  0  0
    6.3453   -1.0237   -0.6670 N   0  0  0  0  0  0  0  0  0  0  0  0
    3.9961    2.5396   -0.7328 C   0  0  0  0  0  0  0  0  0  0  0  0
    2.7062    2.6488    0.0664 C   0  0  0  0  0  0  0  0  0  0  0  0
   -4.9061   -0.7264    0.4307 C   0  0  0  0  0  0  0  0  0  0  0  0
   -5.2765   -1.9999    0.0665 C   0  0  0  0  0  0  0  0  0  0  0  0
   -6.5322   -2.4021   -0.2295 N   0  0  0  0  0  0  0  0  0  0  0  0
   -7.0207   -3.5825   -0.5920 N   0  0  0  0  0  0  0  0  0  0  0  0
   -8.3330   -3.4887   -0.7767 C   0  0  0  0  0  0  0  0  0  0  0  0
   -8.6724   -2.2038   -0.5200 N   0  0  0  0  0  0  0  0  0  0  0  0
   -7.5485   -1.5344   -0.1806 C   0  0  0  0  0  0  0  0  0  0  0  0
   -7.2483   -0.2450    0.1780 C   0  0  0  0  0  0  0  0  0  0  0  0
   -5.9600    0.1880    0.4848 C   0  0  0  0  0  0  0  0  0  0  0  0
   -5.7640    1.6132    0.8233 C   0  0  0  0  0  0  0  0  0  0  0  0
   -0.6450   -1.0230   -2.5072 H   0  0  0  0  0  0  0  0  0  0  0  0
   -0.3208   -2.2873   -1.1666 H   0  0  0  0  0  0  0  0  0  0  0  0
   -1.2152   -2.6805   -2.6160 H   0  0  0  0  0  0  0  0  0  0  0  0
   -2.8101   -2.4322   -1.0116 H   0  0  0  0  0  0  0  0  0  0  0  0
   -3.8236   -0.0453   -1.8993 H   0  0  0  0  0  0  0  0  0  0  0  0
   -2.6558   -0.5221   -3.2271 H   0  0  0  0  0  0  0  0  0  0  0  0
   -3.9700   -1.6166   -2.7417 H   0  0  0  0  0  0  0  0  0  0  0  0
   -3.7336    1.0045    2.3213 H   0  0  0  0  0  0  0  0  0  0  0  0
   -1.4265    2.2591    3.0130 H   0  0  0  0  0  0  0  0  0  0  0  0
    0.9841    2.4970    2.4480 H   0  0  0  0  0  0  0  0  0  0  0  0
    0.4663   -0.2176   -0.6842 H   0  0  0  0  0  0  0  0  0  0  0  0
    2.4875    0.6019   -0.4466 H   0  0  0  0  0  0  0  0  0  0  0  0
    3.2333   -0.3934    1.4656 H   0  0  0  0  0  0  0  0  0  0  0  0
    3.1234    1.1370    2.4989 H   0  0  0  0  0  0  0  0  0  0  0  0
    4.9905    2.0159    1.5893 H   0  0  0  0  0  0  0  0  0  0  0  0
    5.3622    0.3131    1.2867 H   0  0  0  0  0  0  0  0  0  0  0  0
    6.0095    1.5905   -1.9349 H   0  0  0  0  0  0  0  0  0  0  0  0
    6.4803    2.2957   -0.3007 H   0  0  0  0  0  0  0  0  0  0  0  0
    9.9985   -0.7236    0.1220 H   0  0  0  0  0  0  0  0  0  0  0  0
    8.9740   -2.9412   -0.0177 H   0  0  0  0  0  0  0  0  0  0  0  0
    6.6068   -3.1312   -0.5287 H   0  0  0  0  0  0  0  0  0  0  0  0
    4.6535    3.3692   -0.4200 H   0  0  0  0  0  0  0  0  0  0  0  0
    3.8123    2.5181   -1.8176 H   0  0  0  0  0  0  0  0  0  0  0  0
    1.9263    3.1286   -0.5585 H   0  0  0  0  0  0  0  0  0  0  0  0
    2.8825    3.2600    0.9717 H   0  0  0  0  0  0  0  0  0  0  0  0
   -4.5308   -2.7779    0.0519 H   0  0  0  0  0  0  0  0  0  0  0  0
   -8.9591   -4.3189   -1.0763 H   0  0  0  0  0  0  0  0  0  0  0  0
   -8.0577    0.4776    0.2255 H   0  0  0  0  0  0  0  0  0  0  0  0
   -5.9260    1.7102    1.9366 H   0  0  0  0  0  0  0  0  0  0  0  0
   -6.6450    2.1680    0.3460 H   0  0  0  0  0  0  0  0  0  0  0  0
   -4.8280    2.0444    0.4650 H   0  0  0  0  0  0  0  0  0  0  0  0
  1  2  1  0
  2  3  1  0
  2  4  1  0
  4  5  2  0
  5  6  1  0
  6  7  1  0
  7  8  2  0
  8  9  1  0
  9 10  2  0
 10 11  1  0
 11 12  2  0
 10 13  1  0
 13 14  1  0
 14 15  1  0
 15 16  1  0
 16 17  1  0
 17 18  1  0
 18 19  2  0
 19 20  1  0
 20 21  2  0
 21 22  1  0
 22 23  2  0
 16 24  1  0
 24 25  1  0
  5 26  1  0
 26 27  2  0
 27 28  1  0
 28 29  1  0
 29 30  2  0
 30 31  1  0
 31 32  2  0
 32 33  1  0
 33 34  2  0
 34 35  1  0
 12  4  1  0
 25 13  1  0
 34 26  1  0
 12  7  1  0
 23 18  1  0
 32 28  1  0
  1 36  1  0
  1 37  1  0
  1 38  1  0
  2 39  1  0
  3 40  1  0
  3 41  1  0
  3 42  1  0
  6 43  1  0
  8 44  1  0
  9 45  1  0
 11 46  1  0
 13 47  1  0
 14 48  1  0
 14 49  1  0
 15 50  1  0
 15 51  1  0
 17 52  1  0
 17 53  1  0
 20 54  1  0
 21 55  1  0
 22 56  1  0
 24 57  1  0
 24 58  1  0
 25 59  1  0
 25 60  1  0
 27 61  1  0
 30 62  1  0
 33 63  1  0
 35 64  1  0
 35 65  1  0
 35 66  1  0
M  END
$$$$
[H]Oc1c([H])c([H])c(C([H])([H])[H])c([H])c1-c1c([H])c(C(=O)N([H])c2nc(C([H])([H])[H])nc([H])c2[H])c([H])c(OC([H])([H])C([H])(C([H])([H])O[H])C([H])([H])OC([H])([H])[H])c1OC([H])([H])[H]
     RDKit          3D

 63 65  0  0  0  0  0  0  0  0999 V2000
   -4.8612   -3.0150    1.7416 C   0  0  0  0  0  0  0  0  0  0  0  0
   -4.1865   -2.9306    0.5318 O   0  0  0  0  0  0  0  0  0  0  0  0
   -2.8154   -2.8758    0.7776 C   0  0  0  0  0  0  0  0  0  0  0  0
   -2.0095   -2.7816   -0.5079 C   0  0  0  0  0  0  0  0  0  0  0  0
   -2.2713   -3.9949   -1.3900 C   0  0  0  0  0  0  0  0  0  0  0  0
   -1.9206   -5.1854   -0.7567 O   0  0  0  0  0  0  0  0  0  0  0  0
   -2.4093   -1.5833   -1.3253 C   0  0  0  0  0  0  0  0  0  0  0  0
   -2.2802   -0.3546   -0.7787 O   0  0  0  0  0  0  0  0  0  0  0  0
   -1.1853    0.3334   -0.3862 C   0  0  0  0  0  0  0  0  0  0  0  0
    0.0863   -0.1590   -0.5583 C   0  0  0  0  0  0  0  0  0  0  0  0
    1.1963    0.5322   -0.1566 C   0  0  0  0  0  0  0  0  0  0  0  0
    1.0511    1.7599    0.4380 C   0  0  0  0  0  0  0  0  0  0  0  0
   -0.2321    2.2977    0.6305 C   0  0  0  0  0  0  0  0  0  0  0  0
   -1.3349    1.6058    0.2301 C   0  0  0  0  0  0  0  0  0  0  0  0
   -2.6128    2.0447    0.3834 O   0  0  0  0  0  0  0  0  0  0  0  0
   -3.4355    2.7412   -0.4966 C   0  0  0  0  0  0  0  0  0  0  0  0
   -0.2191    3.6147    1.2566 C   0  0  0  0  0  0  0  0  0  0  0  0
   -0.7655    4.7540    0.7501 C   0  0  0  0  0  0  0  0  0  0  0  0
   -0.6881    5.9836    1.3692 C   0  0  0  0  0  0  0  0  0  0  0  0
   -1.3049    7.2068    0.7794 C   0  0  0  0  0  0  0  0  0  0  0  0
   -0.0152    6.0515    2.5696 C   0  0  0  0  0  0  0  0  0  0  0  0
    0.5450    4.9112    3.0976 C   0  0  0  0  0  0  0  0  0  0  0  0
    0.4698    3.6851    2.4847 C   0  0  0  0  0  0  0  0  0  0  0  0
    1.0427    2.5480    3.0373 O   0  0  0  0  0  0  0  0  0  0  0  0
    2.5471   -0.0463   -0.3631 C   0  0  0  0  0  0  0  0  0  0  0  0
    3.5181    0.7591   -0.3199 O   0  0  0  0  0  0  0  0  0  0  0  0
    2.7671   -1.4085   -0.5943 N   0  0  0  0  0  0  0  0  0  0  0  0
    4.0073   -2.0301   -0.7966 C   0  0  0  0  0  0  0  0  0  0  0  0
    5.2355   -1.4557   -0.8006 C   0  0  0  0  0  0  0  0  0  0  0  0
    6.4241   -2.1877   -1.0217 C   0  0  0  0  0  0  0  0  0  0  0  0
    6.2727   -3.5026   -1.2311 N   0  0  0  0  0  0  0  0  0  0  0  0
    5.0721   -4.0936   -1.2324 C   0  0  0  0  0  0  0  0  0  0  0  0
    5.0332   -5.5714   -1.4808 C   0  0  0  0  0  0  0  0  0  0  0  0
    3.9608   -3.3893   -1.0220 N   0  0  0  0  0  0  0  0  0  0  0  0
   -4.5173   -3.9502    2.2628 H   0  0  0  0  0  0  0  0  0  0  0  0
   -4.5881   -2.1847    2.4225 H   0  0  0  0  0  0  0  0  0  0  0  0
   -5.9491   -3.0922    1.5545 H   0  0  0  0  0  0  0  0  0  0  0  0
   -2.5579   -1.9811    1.3796 H   0  0  0  0  0  0  0  0  0  0  0  0
   -2.4862   -3.7763    1.3437 H   0  0  0  0  0  0  0  0  0  0  0  0
   -0.9616   -2.7900   -0.2383 H   0  0  0  0  0  0  0  0  0  0  0  0
   -1.6685   -3.8923   -2.3137 H   0  0  0  0  0  0  0  0  0  0  0  0
   -3.3346   -4.0423   -1.7009 H   0  0  0  0  0  0  0  0  0  0  0  0
   -1.0080   -5.0891   -0.4214 H   0  0  0  0  0  0  0  0  0  0  0  0
   -3.5010   -1.7497   -1.5651 H   0  0  0  0  0  0  0  0  0  0  0  0
   -1.8148   -1.7001   -2.2883 H   0  0  0  0  0  0  0  0  0  0  0  0
    0.2493   -1.1122   -1.0559 H   0  0  0  0  0  0  0  0  0  0  0  0
    1.9418    2.3222    0.7620 H   0  0  0  0  0  0  0  0  0  0  0  0
   -4.3632    2.1198   -0.6631 H   0  0  0  0  0  0  0  0  0  0  0  0
   -3.8058    3.7099   -0.1089 H   0  0  0  0  0  0  0  0  0  0  0  0
   -2.9678    2.8404   -1.5028 H   0  0  0  0  0  0  0  0  0  0  0  0
   -1.2685    4.7346   -0.1952 H   0  0  0  0  0  0  0  0  0  0  0  0
   -2.1815    6.9922    0.1555 H   0  0  0  0  0  0  0  0  0  0  0  0
   -0.5667    7.7973    0.2013 H   0  0  0  0  0  0  0  0  0  0  0  0
   -1.6416    7.8620    1.6106 H   0  0  0  0  0  0  0  0  0  0  0  0
    0.0484    7.0173    3.0603 H   0  0  0  0  0  0  0  0  0  0  0  0
    1.0747    4.9982    4.0544 H   0  0  0  0  0  0  0  0  0  0  0  0
    1.5258    2.6501    3.9204 H   0  0  0  0  0  0  0  0  0  0  0  0
    1.8815   -2.0472   -0.6171 H   0  0  0  0  0  0  0  0  0  0  0  0
    5.3491   -0.4004   -0.6307 H   0  0  0  0  0  0  0  0  0  0  0  0
    7.3684   -1.6657   -1.0109 H   0  0  0  0  0  0  0  0  0  0  0  0
    4.1248   -5.8277   -2.0729 H   0  0  0  0  0  0  0  0  0  0  0  0
    5.0073   -6.1551   -0.5489 H   0  0  0  0  0  0  0  0  0  0  0  0
    5.9293   -5.8515   -2.0967 H   0  0  0  0  0  0  0  0  0  0  0  0
  1  2  1  0
  2  3  1  0
  3  4  1  0
  4  5  1  0
  5  6  1  0
  4  7  1  0
  7  8  1  0
  8  9  1  0
  9 10  2  0
 10 11  1  0
 11 12  2  0
 12 13  1  0
 13 14  2  0
 14 15  1  0
 15 16  1  0
 13 17  1  0
 17 18  2  0
 18 19  1  0
 19 20  1  0
 19 21  2  0
 21 22  1  0
 22 23  2  0
 23 24  1  0
 11 25  1  0
 25 26  2  0
 25 27  1  0
 27 28  1  0
 28 29  2  0
 29 30  1  0
 30 31  2  0
 31 32  1  0
 32 33  1  0
 32 34  2  0
 14  9  1  0
 23 17  1  0
 34 28  1  0
  1 35  1  0
  1 36  1  0
  1 37  1  0
  3 38  1  0
  3 39  1  0
  4 40  1  0
  5 41  1  0
  5 42  1  0
  6 43  1  0
  7 44  1  0
  7 45  1  0
 10 46  1  0
 12 47  1  0
 16 48  1  0
 16 49  1  0
 16 50  1  0
 18 51  1  0
 20 52  1  0
 20 53  1  0
 20 54  1  0
 21 55  1  0
 22 56  1  0
 24 57  1  0
 27 58  1  0
 29 59  1  0
 30 60  1  0
 33 61  1  0
 33 62  1  0
 33 63  1  0
M  END
$$$$
[H]c1nc2c(nc(N([H])c3c([H])c(OC([H])([H])[H])c(OC([H])([H])[H])c(OC([H])([H])[H])c3[H])n2[H])c(-c2c([H])c([H])c3c(c([H])nn3[H])c2[H])c1[H]
     RDKit          3D

 51 55  0  0  0  0  0  0  0  0999 V2000
    0.9386    2.5587    0.3137 C   0  0  0  0  0  0  0  0  0  0  0  0
    2.2595    2.3213   -0.1240 O   0  0  0  0  0  0  0  0  0  0  0  0
    2.6642    0.9906   -0.2674 C   0  0  0  0  0  0  0  0  0  0  0  0
    1.7838   -0.0665    0.0154 C   0  0  0  0  0  0  0  0  0  0  0  0
    2.1531   -1.3814   -0.1163 C   0  0  0  0  0  0  0  0  0  0  0  0
    1.3420   -2.5003    0.1274 N   0  0  0  0  0  0  0  0  0  0  0  0
   -0.0432   -2.4996    0.3802 C   0  0  0  0  0  0  0  0  0  0  0  0
   -0.9456   -1.5059    0.4583 N   0  0  0  0  0  0  0  0  0  0  0  0
   -2.1771   -1.9730    0.7195 C   0  0  0  0  0  0  0  0  0  0  0  0
   -3.3845   -1.3803    0.8858 C   0  0  0  0  0  0  0  0  0  0  0  0
   -4.4912   -2.1942    1.1531 C   0  0  0  0  0  0  0  0  0  0  0  0
   -4.3432   -3.5601    1.2423 C   0  0  0  0  0  0  0  0  0  0  0  0
   -3.1430   -4.1321    1.0757 N   0  0  0  0  0  0  0  0  0  0  0  0
   -2.0605   -3.3436    0.8148 C   0  0  0  0  0  0  0  0  0  0  0  0
   -0.7672   -3.6152    0.6052 N   0  0  0  0  0  0  0  0  0  0  0  0
   -3.5053    0.0607    0.7868 C   0  0  0  0  0  0  0  0  0  0  0  0
   -2.6599    0.9707    1.3736 C   0  0  0  0  0  0  0  0  0  0  0  0
   -2.8330    2.3296    1.2413 C   0  0  0  0  0  0  0  0  0  0  0  0
   -3.8801    2.8382    0.5016 C   0  0  0  0  0  0  0  0  0  0  0  0
   -4.2972    4.0957    0.1986 N   0  0  0  0  0  0  0  0  0  0  0  0
   -5.3951    4.0136   -0.5722 N   0  0  0  0  0  0  0  0  0  0  0  0
   -5.6734    2.7068   -0.7575 C   0  0  0  0  0  0  0  0  0  0  0  0
   -4.7396    1.9459   -0.0954 C   0  0  0  0  0  0  0  0  0  0  0  0
   -4.5530    0.5930    0.0463 C   0  0  0  0  0  0  0  0  0  0  0  0
    3.4681   -1.5834   -0.5515 C   0  0  0  0  0  0  0  0  0  0  0  0
    4.3328   -0.5505   -0.8292 C   0  0  0  0  0  0  0  0  0  0  0  0
    5.6321   -0.8021   -1.2595 O   0  0  0  0  0  0  0  0  0  0  0  0
    6.1182   -2.1306   -1.4296 C   0  0  0  0  0  0  0  0  0  0  0  0
    3.9516    0.7615   -0.6938 C   0  0  0  0  0  0  0  0  0  0  0  0
    4.7998    1.8255   -0.9659 O   0  0  0  0  0  0  0  0  0  0  0  0
    5.6431    2.4138   -0.0037 C   0  0  0  0  0  0  0  0  0  0  0  0
    0.6481    3.6207    0.2261 H   0  0  0  0  0  0  0  0  0  0  0  0
    0.7880    2.2528    1.3599 H   0  0  0  0  0  0  0  0  0  0  0  0
    0.2452    2.0038   -0.3752 H   0  0  0  0  0  0  0  0  0  0  0  0
    0.8068    0.1800    0.3456 H   0  0  0  0  0  0  0  0  0  0  0  0
    1.8259   -3.4359    0.1238 H   0  0  0  0  0  0  0  0  0  0  0  0
   -5.4584   -1.7453    1.2884 H   0  0  0  0  0  0  0  0  0  0  0  0
   -5.1834   -4.2096    1.4480 H   0  0  0  0  0  0  0  0  0  0  0  0
   -0.4037   -4.5883    0.6224 H   0  0  0  0  0  0  0  0  0  0  0  0
   -1.8269    0.6258    1.9616 H   0  0  0  0  0  0  0  0  0  0  0  0
   -2.1639    3.0468    1.7059 H   0  0  0  0  0  0  0  0  0  0  0  0
   -3.8555    4.9918    0.5020 H   0  0  0  0  0  0  0  0  0  0  0  0
   -6.5145    2.3730   -1.3460 H   0  0  0  0  0  0  0  0  0  0  0  0
   -5.2619   -0.0549   -0.4468 H   0  0  0  0  0  0  0  0  0  0  0  0
    3.7788   -2.6167   -0.6627 H   0  0  0  0  0  0  0  0  0  0  0  0
    7.1561   -2.0367   -1.8185 H   0  0  0  0  0  0  0  0  0  0  0  0
    5.4563   -2.6210   -2.1880 H   0  0  0  0  0  0  0  0  0  0  0  0
    6.0937   -2.7036   -0.4851 H   0  0  0  0  0  0  0  0  0  0  0  0
    6.5871    2.6840   -0.5243 H   0  0  0  0  0  0  0  0  0  0  0  0
    5.9067    1.7164    0.8156 H   0  0  0  0  0  0  0  0  0  0  0  0
    5.1807    3.3099    0.4589 H   0  0  0  0  0  0  0  0  0  0  0  0
  1  2  1  0
  2  3  1  0
  3  4  2  0
  4  5  1  0
  5  6  1  0
  6  7  1  0
  7  8  2  0
  8  9  1  0
  9 10  2  0
 10 11  1  0
 11 12  2  0
 12 13  1  0
 13 14  2  0
 14 15  1  0
 10 16  1  0
 16 17  2  0
 17 18  1  0
 18 19  2  0
 19 20  1  0
 20 21  1  0
 21 22  2  0
 22 23  1  0
 23 24  2  0
  5 25  2  0
 25 26  1  0
 26 27  1  0
 27 28  1  0
 26 29  2  0
 29 30  1  0
 30 31  1  0
 29  3  1  0
 15  7  1  0
 24 16  1  0
 14  9  1  0
 23 19  1  0
  1 32  1  0
  1 33  1  0
  1 34  1  0
  4 35  1  0
  6 36  1  0
 11 37  1  0
 12 38  1  0
 15 39  1  0
 17 40  1  0
 18 41  1  0
 20 42  1  0
 22 43  1  0
 24 44  1  0
 25 45  1  0
 28 46  1  0
 28 47  1  0
 28 48  1  0
 31 49  1  0
 31 50  1  0
 31 51  1  0
M  END
$$$$
[H]C([H])=C([H])C(=O)N1C([H])([H])C([H])([H])C([H])([H])[C@]([H])(C([H])([H])N([H])c2nc([H])nc3oc(-c4c([H])c([H])c(C(=O)N([H])C([H])([H])C([H])([H])N(C([H])([H])C([H])([H])[H])C([H])([H])C([H])([H])[H])c([H])c4[H])c(-c4c([H])c([H])c([H])c([H])c4[H])c23)C1([H])[H]
     RDKit          3D

 83 87  0  0  0  0  0  0  0  0999 V2000
    7.2521   -3.7288   -1.8193 C   0  0  0  0  0  0  0  0  0  0  0  0
    7.5461   -2.3681   -2.3627 C   0  0  0  0  0  0  0  0  0  0  0  0
    7.6141   -1.3504   -1.2686 N   0  0  0  0  0  0  0  0  0  0  0  0
    8.8440   -1.7633   -0.5642 C   0  0  0  0  0  0  0  0  0  0  0  0
    9.2412   -0.9620    0.5982 C   0  0  0  0  0  0  0  0  0  0  0  0
    7.8216   -0.1197   -1.9474 C   0  0  0  0  0  0  0  0  0  0  0  0
    7.5831    1.1542   -1.2409 C   0  0  0  0  0  0  0  0  0  0  0  0
    6.2644    1.4559   -0.8196 N   0  0  0  0  0  0  0  0  0  0  0  0
    5.3925    0.8074    0.0508 C   0  0  0  0  0  0  0  0  0  0  0  0
    5.7037   -0.2421    0.6403 O   0  0  0  0  0  0  0  0  0  0  0  0
    4.0312    1.3067    0.3485 C   0  0  0  0  0  0  0  0  0  0  0  0
    3.3724    0.8721    1.4880 C   0  0  0  0  0  0  0  0  0  0  0  0
    2.1018    1.3140    1.7841 C   0  0  0  0  0  0  0  0  0  0  0  0
    1.4157    2.1994    0.9821 C   0  0  0  0  0  0  0  0  0  0  0  0
    2.0782    2.6294   -0.1530 C   0  0  0  0  0  0  0  0  0  0  0  0
    3.3628    2.1921   -0.4655 C   0  0  0  0  0  0  0  0  0  0  0  0
    0.0728    2.6841    1.2526 C   0  0  0  0  0  0  0  0  0  0  0  0
   -0.3212    3.8725    1.5906 O   0  0  0  0  0  0  0  0  0  0  0  0
   -1.6062    3.9393    1.7523 C   0  0  0  0  0  0  0  0  0  0  0  0
   -2.4696    4.9139    2.0915 N   0  0  0  0  0  0  0  0  0  0  0  0
   -3.7936    4.7481    2.2007 C   0  0  0  0  0  0  0  0  0  0  0  0
   -4.2942    3.5346    1.9568 N   0  0  0  0  0  0  0  0  0  0  0  0
   -3.5002    2.4837    1.6059 C   0  0  0  0  0  0  0  0  0  0  0  0
   -4.0674    1.2232    1.3324 N   0  0  0  0  0  0  0  0  0  0  0  0
   -5.5321    1.1389    1.5105 C   0  0  0  0  0  0  0  0  0  0  0  0
   -6.0589   -0.2401    1.2147 C   0  0  1  0  0  0  0  0  0  0  0  0
   -7.5338   -0.3429    1.3962 C   0  0  0  0  0  0  0  0  0  0  0  0
   -8.3580    0.2822    0.2799 C   0  0  0  0  0  0  0  0  0  0  0  0
   -7.6349    0.1012   -1.0473 C   0  0  0  0  0  0  0  0  0  0  0  0
   -6.7477   -1.0105   -0.9865 N   0  0  0  0  0  0  0  0  0  0  0  0
   -5.5477   -0.7352   -0.1254 C   0  0  0  0  0  0  0  0  0  0  0  0
   -6.8659   -2.2735   -1.5210 C   0  0  0  0  0  0  0  0  0  0  0  0
   -5.7845   -3.0513   -1.4105 O   0  0  0  0  0  0  0  0  0  0  0  0
   -7.9815   -2.8718   -2.1745 C   0  0  0  0  0  0  0  0  0  0  0  0
   -9.1516   -2.3831   -2.3747 C   0  0  0  0  0  0  0  0  0  0  0  0
   -2.1471    2.6694    1.4992 C   0  0  0  0  0  0  0  0  0  0  0  0
   -1.0743    1.8871    1.1854 C   0  0  0  0  0  0  0  0  0  0  0  0
   -1.0283    0.5013    0.8350 C   0  0  0  0  0  0  0  0  0  0  0  0
   -1.0338    0.1416   -0.5222 C   0  0  0  0  0  0  0  0  0  0  0  0
   -0.9471   -1.1776   -0.9055 C   0  0  0  0  0  0  0  0  0  0  0  0
   -0.8516   -2.1993    0.0105 C   0  0  0  0  0  0  0  0  0  0  0  0
   -0.8444   -1.8673    1.3441 C   0  0  0  0  0  0  0  0  0  0  0  0
   -0.9303   -0.5608    1.7261 C   0  0  0  0  0  0  0  0  0  0  0  0
    6.6236   -4.2690   -2.5642 H   0  0  0  0  0  0  0  0  0  0  0  0
    6.6009   -3.6563   -0.9057 H   0  0  0  0  0  0  0  0  0  0  0  0
    8.1346   -4.3554   -1.6466 H   0  0  0  0  0  0  0  0  0  0  0  0
    8.5223   -2.4078   -2.8840 H   0  0  0  0  0  0  0  0  0  0  0  0
    6.7804   -2.0893   -3.1044 H   0  0  0  0  0  0  0  0  0  0  0  0
    9.6464   -1.7038   -1.3460 H   0  0  0  0  0  0  0  0  0  0  0  0
    8.6987   -2.8280   -0.2379 H   0  0  0  0  0  0  0  0  0  0  0  0
    8.4596   -0.5296    1.2270 H   0  0  0  0  0  0  0  0  0  0  0  0
    9.8176   -1.6425    1.3090 H   0  0  0  0  0  0  0  0  0  0  0  0
   10.0156   -0.1818    0.3125 H   0  0  0  0  0  0  0  0  0  0  0  0
    8.8875   -0.1173   -2.3141 H   0  0  0  0  0  0  0  0  0  0  0  0
    7.2223   -0.0958   -2.8986 H   0  0  0  0  0  0  0  0  0  0  0  0
    8.2494    1.2656   -0.3374 H   0  0  0  0  0  0  0  0  0  0  0  0
    7.9619    1.9877   -1.9141 H   0  0  0  0  0  0  0  0  0  0  0  0
    5.8570    2.3656   -1.2553 H   0  0  0  0  0  0  0  0  0  0  0  0
    3.8974    0.1625    2.1479 H   0  0  0  0  0  0  0  0  0  0  0  0
    1.6084    0.9687    2.6804 H   0  0  0  0  0  0  0  0  0  0  0  0
    1.5607    3.3296   -0.8046 H   0  0  0  0  0  0  0  0  0  0  0  0
    3.8681    2.5336   -1.3570 H   0  0  0  0  0  0  0  0  0  0  0  0
   -4.4675    5.5632    2.4789 H   0  0  0  0  0  0  0  0  0  0  0  0
   -3.6390    0.3609    1.0240 H   0  0  0  0  0  0  0  0  0  0  0  0
   -5.7961    1.3561    2.5684 H   0  0  0  0  0  0  0  0  0  0  0  0
   -6.0075    1.8926    0.8789 H   0  0  0  0  0  0  0  0  0  0  0  0
   -5.5954   -0.9193    1.9807 H   0  0  0  0  0  0  0  0  0  0  0  0
   -7.7902   -1.4223    1.4356 H   0  0  0  0  0  0  0  0  0  0  0  0
   -7.8011    0.1625    2.3288 H   0  0  0  0  0  0  0  0  0  0  0  0
   -9.3069   -0.2842    0.2218 H   0  0  0  0  0  0  0  0  0  0  0  0
   -8.6150    1.3391    0.4717 H   0  0  0  0  0  0  0  0  0  0  0  0
   -6.9986    1.0705   -1.1188 H   0  0  0  0  0  0  0  0  0  0  0  0
   -8.2261    0.1394   -1.9345 H   0  0  0  0  0  0  0  0  0  0  0  0
   -5.0001   -1.6744   -0.0670 H   0  0  0  0  0  0  0  0  0  0  0  0
   -4.9744    0.0236   -0.6540 H   0  0  0  0  0  0  0  0  0  0  0  0
   -7.8272   -3.9240   -2.5784 H   0  0  0  0  0  0  0  0  0  0  0  0
   -9.5569   -1.4358   -2.1033 H   0  0  0  0  0  0  0  0  0  0  0  0
   -9.8678   -3.0596   -2.9242 H   0  0  0  0  0  0  0  0  0  0  0  0
   -1.1067    0.9134   -1.2723 H   0  0  0  0  0  0  0  0  0  0  0  0
   -0.9513   -1.4415   -1.9530 H   0  0  0  0  0  0  0  0  0  0  0  0
   -0.7833   -3.2369   -0.3057 H   0  0  0  0  0  0  0  0  0  0  0  0
   -0.7695   -2.6520    2.0850 H   0  0  0  0  0  0  0  0  0  0  0  0
   -0.9237   -0.3127    2.7752 H   0  0  0  0  0  0  0  0  0  0  0  0
  1  2  1  0
  2  3  1  0
  3  4  1  0
  4  5  1  0
  3  6  1  0
  6  7  1  0
  7  8  1  0
  8  9  1  0
  9 10  2  0
  9 11  1  0
 11 12  2  0
 12 13  1  0
 13 14  2  0
 14 15  1  0
 15 16  2  0
 14 17  1  0
 17 18  1  0
 18 19  1  0
 19 20  2  0
 20 21  1  0
 21 22  2  0
 22 23  1  0
 23 24  1  0
 24 25  1  0
 25 26  1  0
 26 27  1  0
 27 28  1  0
 28 29  1  0
 29 30  1  0
 30 31  1  0
 30 32  1  0
 32 33  2  0
 32 34  1  0
 34 35  2  3
 23 36  2  0
 36 37  1  0
 37 38  1  0
 38 39  2  0
 39 40  1  0
 40 41  2  0
 41 42  1  0
 42 43  2  0
 16 11  1  0
 37 17  2  0
 43 38  1  0
 36 19  1  0
 31 26  1  0
  1 44  1  0
  1 45  1  0
  1 46  1  0
  2 47  1  0
  2 48  1  0
  4 49  1  0
  4 50  1  0
  5 51  1  0
  5 52  1  0
  5 53  1  0
  6 54  1  0
  6 55  1  0
  7 56  1  0
  7 57  1  0
  8 58  1  0
 12 59  1  0
 13 60  1  0
 15 61  1  0
 16 62  1  0
 21 63  1  0
 24 64  1  0
 25 65  1  0
 25 66  1  0
 26 67  1  1
 27 68  1  0
 27 69  1  0
 28 70  1  0
 28 71  1  0
 29 72  1  0
 29 73  1  0
 31 74  1  0
 31 75  1  0
 34 76  1  0
 35 77  1  0
 35 78  1  0
 39 79  1  0
 40 80  1  0
 41 81  1  0
 42 82  1  0
 43 83  1  0
M  END
$$$$
[H]c1nc(N([H])c2c([H])c([H])c([H])c3c2c([H])c([H])n3[H])nc(-c2c([H])c([H])c3sc(N([H])C(=O)c4c([H])c([H])c(C#N)c([H])c4OC([H])([H])[H])c([H])c3c2[H])c1[H]
     RDKit          3D

 58 63  0  0  0  0  0  0  0  0999 V2000
   -8.1023    0.9080   -2.5411 C   0  0  0  0  0  0  0  0  0  0  0  0
   -7.3934    0.4908   -1.4042 O   0  0  0  0  0  0  0  0  0  0  0  0
   -8.0036    0.0600   -0.2604 C   0  0  0  0  0  0  0  0  0  0  0  0
   -9.3892    0.0393   -0.2359 C   0  0  0  0  0  0  0  0  0  0  0  0
  -10.1006   -0.3748    0.8607 C   0  0  0  0  0  0  0  0  0  0  0  0
   -9.3985   -0.7802    1.9659 C   0  0  0  0  0  0  0  0  0  0  0  0
   -8.0277   -0.7592    1.9403 C   0  0  0  0  0  0  0  0  0  0  0  0
   -7.2775   -0.3418    0.8359 C   0  0  0  0  0  0  0  0  0  0  0  0
   -5.8280   -0.3525    0.8972 C   0  0  0  0  0  0  0  0  0  0  0  0
   -5.3555   -0.7710    2.0326 O   0  0  0  0  0  0  0  0  0  0  0  0
   -4.9376    0.0304   -0.1116 N   0  0  0  0  0  0  0  0  0  0  0  0
   -3.5429   -0.0679    0.1840 C   0  0  0  0  0  0  0  0  0  0  0  0
   -2.4739    0.2349   -0.6057 C   0  0  0  0  0  0  0  0  0  0  0  0
   -1.2516    0.0483   -0.0767 C   0  0  0  0  0  0  0  0  0  0  0  0
   -0.0182    0.2982   -0.7206 C   0  0  0  0  0  0  0  0  0  0  0  0
    1.1531    0.0626   -0.0612 C   0  0  0  0  0  0  0  0  0  0  0  0
    1.2151   -0.4249    1.2504 C   0  0  0  0  0  0  0  0  0  0  0  0
    0.0217   -0.6682    1.8775 C   0  0  0  0  0  0  0  0  0  0  0  0
   -1.1832   -0.4271    1.2024 C   0  0  0  0  0  0  0  0  0  0  0  0
   -2.8246   -0.6018    1.6349 S   0  0  0  0  0  0  0  0  0  0  0  0
    2.4596    0.2993   -0.6678 C   0  0  0  0  0  0  0  0  0  0  0  0
    2.5449    0.7760   -1.9473 C   0  0  0  0  0  0  0  0  0  0  0  0
    3.8209    0.9906   -2.4953 C   0  0  0  0  0  0  0  0  0  0  0  0
    4.8939    0.7169   -1.7357 N   0  0  0  0  0  0  0  0  0  0  0  0
    4.8294    0.2546   -0.4946 C   0  0  0  0  0  0  0  0  0  0  0  0
    5.9636   -0.0288    0.2922 N   0  0  0  0  0  0  0  0  0  0  0  0
    7.3071    0.0790    0.0327 C   0  0  0  0  0  0  0  0  0  0  0  0
    7.8322    0.5221   -1.1464 C   0  0  0  0  0  0  0  0  0  0  0  0
    9.2159    0.6211   -1.3815 C   0  0  0  0  0  0  0  0  0  0  0  0
   10.0712    0.2534   -0.3743 C   0  0  0  0  0  0  0  0  0  0  0  0
    9.5817   -0.2008    0.8355 C   0  0  0  0  0  0  0  0  0  0  0  0
   10.2296   -0.6126    1.9566 N   0  0  0  0  0  0  0  0  0  0  0  0
    9.3088   -0.9512    2.8462 C   0  0  0  0  0  0  0  0  0  0  0  0
    8.0580   -0.7688    2.3280 C   0  0  0  0  0  0  0  0  0  0  0  0
    8.2276   -0.2831    1.0264 C   0  0  0  0  0  0  0  0  0  0  0  0
    3.5870    0.0583    0.0049 N   0  0  0  0  0  0  0  0  0  0  0  0
  -11.5455   -0.3745    0.8272 C   0  0  0  0  0  0  0  0  0  0  0  0
  -12.7001   -0.3669    0.7815 N   0  0  0  0  0  0  0  0  0  0  0  0
   -8.8605    1.6709   -2.2257 H   0  0  0  0  0  0  0  0  0  0  0  0
   -7.4606    1.3175   -3.3328 H   0  0  0  0  0  0  0  0  0  0  0  0
   -8.7150    0.0589   -2.9475 H   0  0  0  0  0  0  0  0  0  0  0  0
   -9.9596    0.3612   -1.1141 H   0  0  0  0  0  0  0  0  0  0  0  0
   -9.9657   -1.1087    2.8358 H   0  0  0  0  0  0  0  0  0  0  0  0
   -7.4871   -1.0853    2.8289 H   0  0  0  0  0  0  0  0  0  0  0  0
   -5.2050    0.3663   -1.0202 H   0  0  0  0  0  0  0  0  0  0  0  0
   -2.6801    0.6164   -1.6355 H   0  0  0  0  0  0  0  0  0  0  0  0
    0.0192    0.6742   -1.7302 H   0  0  0  0  0  0  0  0  0  0  0  0
    2.1463   -0.6056    1.7569 H   0  0  0  0  0  0  0  0  0  0  0  0
   -0.0447   -1.0489    2.8989 H   0  0  0  0  0  0  0  0  0  0  0  0
    1.7198    1.0109   -2.5969 H   0  0  0  0  0  0  0  0  0  0  0  0
    3.9188    1.3692   -3.5107 H   0  0  0  0  0  0  0  0  0  0  0  0
    5.7088   -0.4008    1.2864 H   0  0  0  0  0  0  0  0  0  0  0  0
    7.2341    0.8331   -1.9955 H   0  0  0  0  0  0  0  0  0  0  0  0
    9.5817    0.9758   -2.3267 H   0  0  0  0  0  0  0  0  0  0  0  0
   11.1452    0.3260   -0.5453 H   0  0  0  0  0  0  0  0  0  0  0  0
   11.2790   -0.6438    2.0641 H   0  0  0  0  0  0  0  0  0  0  0  0
    9.5472   -1.3229    3.8504 H   0  0  0  0  0  0  0  0  0  0  0  0
    7.1107   -0.9520    2.7992 H   0  0  0  0  0  0  0  0  0  0  0  0
  1  2  1  0
  2  3  1  0
  3  4  2  0
  4  5  1  0
  5  6  2  0
  6  7  1  0
  7  8  2  0
  8  9  1  0
  9 10  2  0
  9 11  1  0
 11 12  1  0
 12 13  2  0
 13 14  1  0
 14 15  2  0
 15 16  1  0
 16 17  2  0
 17 18  1  0
 18 19  2  0
 19 20  1  0
 16 21  1  0
 21 22  2  0
 22 23  1  0
 23 24  2  0
 24 25  1  0
 25 26  1  0
 26 27  1  0
 27 28  2  0
 28 29  1  0
 29 30  2  0
 30 31  1  0
 31 32  1  0
 32 33  1  0
 33 34  2  0
 34 35  1  0
 25 36  2  0
  5 37  1  0
 37 38  3  0
  8  3  1  0
 20 12  1  0
 36 21  1  0
 19 14  1  0
 35 27  1  0
 35 31  2  0
  1 39  1  0
  1 40  1  0
  1 41  1  0
  4 42  1  0
  6 43  1  0
  7 44  1  0
 11 45  1  0
 13 46  1  0
 15 47  1  0
 17 48  1  0
 18 49  1  0
 22 50  1  0
 23 51  1  0
 26 52  1  0
 28 53  1  0
 29 54  1  0
 30 55  1  0
 32 56  1  0
 33 57  1  0
 34 58  1  0
M  END
$$$$
[H]c1c([H])c([H])c(N([H])C(=O)C([H])([H])N([H])C(=O)c2c([H])c(N([H])C(=O)C([H])([H])C([H])([H])C([H])([H])[H])c([H])c(C(F)(F)F)c2[H])c(Cl)c1[H]
     RDKit          3D

 49 50  0  0  0  0  0  0  0  0999 V2000
    7.9698   -0.0372   -1.1932 C   0  0  0  0  0  0  0  0  0  0  0  0
    7.4232   -1.4455   -1.0469 C   0  0  0  0  0  0  0  0  0  0  0  0
    6.0112   -1.5603   -1.4613 C   0  0  0  0  0  0  0  0  0  0  0  0
    5.1131   -0.7205   -0.6056 C   0  0  0  0  0  0  0  0  0  0  0  0
    5.6827   -0.0230    0.2555 O   0  0  0  0  0  0  0  0  0  0  0  0
    3.7360   -0.7531   -0.8066 N   0  0  0  0  0  0  0  0  0  0  0  0
    2.7338   -0.0511   -0.1205 C   0  0  0  0  0  0  0  0  0  0  0  0
    1.4168   -0.1440   -0.5825 C   0  0  0  0  0  0  0  0  0  0  0  0
    0.3579    0.4962   -0.0317 C   0  0  0  0  0  0  0  0  0  0  0  0
    0.6143    1.3062    1.0795 C   0  0  0  0  0  0  0  0  0  0  0  0
    1.8784    1.4180    1.5512 C   0  0  0  0  0  0  0  0  0  0  0  0
    2.9734    0.7606    0.9889 C   0  0  0  0  0  0  0  0  0  0  0  0
    2.1331    2.3160    2.7267 C   0  0  0  0  0  0  0  0  0  0  0  0
    3.4642    2.4496    2.9759 F   0  0  0  0  0  0  0  0  0  0  0  0
    1.4276    1.7997    3.7804 F   0  0  0  0  0  0  0  0  0  0  0  0
    1.5676    3.5587    2.3836 F   0  0  0  0  0  0  0  0  0  0  0  0
   -1.0022    0.4240   -0.5690 C   0  0  0  0  0  0  0  0  0  0  0  0
   -1.7306    1.4686   -0.4600 O   0  0  0  0  0  0  0  0  0  0  0  0
   -1.4552   -0.7701   -1.1801 N   0  0  0  0  0  0  0  0  0  0  0  0
   -2.7958   -0.7349   -1.7115 C   0  0  0  0  0  0  0  0  0  0  0  0
   -3.7797   -0.5196   -0.5940 C   0  0  0  0  0  0  0  0  0  0  0  0
   -3.4010   -0.5045    0.5811 O   0  0  0  0  0  0  0  0  0  0  0  0
   -5.1295   -0.3301   -0.9805 N   0  0  0  0  0  0  0  0  0  0  0  0
   -6.2164   -0.1129   -0.1228 C   0  0  0  0  0  0  0  0  0  0  0  0
   -6.1941   -0.4184    1.2040 C   0  0  0  0  0  0  0  0  0  0  0  0
   -7.3257   -0.2063    1.9912 C   0  0  0  0  0  0  0  0  0  0  0  0
   -8.4800    0.3122    1.4603 C   0  0  0  0  0  0  0  0  0  0  0  0
   -8.5177    0.6304    0.0940 C   0  0  0  0  0  0  0  0  0  0  0  0
   -7.4008    0.4151   -0.6640 C   0  0  0  0  0  0  0  0  0  0  0  0
   -7.4176    0.8354   -2.3757 Cl  0  0  0  0  0  0  0  0  0  0  0  0
    7.1790    0.6330   -1.6486 H   0  0  0  0  0  0  0  0  0  0  0  0
    8.2999    0.3649   -0.2319 H   0  0  0  0  0  0  0  0  0  0  0  0
    8.8824   -0.0640   -1.8497 H   0  0  0  0  0  0  0  0  0  0  0  0
    8.0700   -2.1597   -1.6328 H   0  0  0  0  0  0  0  0  0  0  0  0
    7.5787   -1.7782    0.0251 H   0  0  0  0  0  0  0  0  0  0  0  0
    5.8963   -1.1778   -2.5100 H   0  0  0  0  0  0  0  0  0  0  0  0
    5.6665   -2.6033   -1.3753 H   0  0  0  0  0  0  0  0  0  0  0  0
    3.4013   -1.4146   -1.5800 H   0  0  0  0  0  0  0  0  0  0  0  0
    1.2117   -0.7760   -1.4617 H   0  0  0  0  0  0  0  0  0  0  0  0
   -0.2674    1.8013    1.4914 H   0  0  0  0  0  0  0  0  0  0  0  0
    3.9440    0.8795    1.3937 H   0  0  0  0  0  0  0  0  0  0  0  0
   -0.8282   -1.6161   -1.2248 H   0  0  0  0  0  0  0  0  0  0  0  0
   -2.9598   -0.0182   -2.5152 H   0  0  0  0  0  0  0  0  0  0  0  0
   -2.9963   -1.7524   -2.1421 H   0  0  0  0  0  0  0  0  0  0  0  0
   -5.3368   -0.3637   -2.0510 H   0  0  0  0  0  0  0  0  0  0  0  0
   -5.3488   -0.8452    1.7149 H   0  0  0  0  0  0  0  0  0  0  0  0
   -7.2359   -0.4771    3.0364 H   0  0  0  0  0  0  0  0  0  0  0  0
   -9.3543    0.4690    2.0856 H   0  0  0  0  0  0  0  0  0  0  0  0
   -9.4594    1.0396   -0.2884 H   0  0  0  0  0  0  0  0  0  0  0  0
  1  2  1  0
  2  3  1  0
  3  4  1  0
  4  5  2  0
  4  6  1  0
  6  7  1  0
  7  8  2  0
  8  9  1  0
  9 10  2  0
 10 11  1  0
 11 12  2  0
 11 13  1  0
 13 14  1  0
 13 15  1  0
 13 16  1  0
  9 17  1  0
 17 18  2  0
 17 19  1  0
 19 20  1  0
 20 21  1  0
 21 22  2  0
 21 23  1  0
 23 24  1  0
 24 25  2  0
 25 26  1  0
 26 27  2  0
 27 28  1  0
 28 29  2  0
 29 30  1  0
 12  7  1  0
 29 24  1  0
  1 31  1  0
  1 32  1  0
  1 33  1  0
  2 34  1  0
  2 35  1  0
  3 36  1  0
  3 37  1  0
  6 38  1  0
  8 39  1  0
 10 40  1  0
 12 41  1  0
 19 42  1  0
 20 43  1  0
 20 44  1  0
 23 45  1  0
 25 46  1  0
 26 47  1  0
 27 48  1  0
 28 49  1  0
M  END
$$$$
[H]c1c([H])c(C([H])([H])n2c(C(F)(F)F)c([H])c3c([H])c(N([H])C(=O)OC(C([H])([H])[H])(C([H])([H])[H])C([H])([H])[H])c([H])c([H])c32)c([H])c(C([H])([H])[H])c1C([H])([H])N([H])S(=O)(=O)C([H])([H])[H]
     RDKit          3D

 63 65  0  0  0  0  0  0  0  0999 V2000
    8.1385   -1.3037    2.0175 C   0  0  0  0  0  0  0  0  0  0  0  0
    8.1269   -0.0624    1.1995 C   0  0  0  0  0  0  0  0  0  0  0  0
    9.3093    0.8222    1.5925 C   0  0  0  0  0  0  0  0  0  0  0  0
    8.4510   -0.4830   -0.2525 C   0  0  0  0  0  0  0  0  0  0  0  0
    6.9387    0.6570    1.1549 O   0  0  0  0  0  0  0  0  0  0  0  0
    5.7178    0.2944    0.7261 C   0  0  0  0  0  0  0  0  0  0  0  0
    5.5802   -0.9264    0.3011 O   0  0  0  0  0  0  0  0  0  0  0  0
    4.5640    1.0712    0.6672 N   0  0  0  0  0  0  0  0  0  0  0  0
    3.2700    0.7303    0.2045 C   0  0  0  0  0  0  0  0  0  0  0  0
    2.5274   -0.3673    0.4788 C   0  0  0  0  0  0  0  0  0  0  0  0
    1.2998   -0.6533   -0.1193 C   0  0  0  0  0  0  0  0  0  0  0  0
    0.7894    0.2245   -1.0529 C   0  0  0  0  0  0  0  0  0  0  0  0
   -0.3583    0.1512   -1.8245 N   0  0  0  0  0  0  0  0  0  0  0  0
   -1.3419   -0.8688   -1.7794 C   0  0  0  0  0  0  0  0  0  0  0  0
   -2.6020   -0.6414   -1.0301 C   0  0  0  0  0  0  0  0  0  0  0  0
   -3.7876   -0.5163   -1.7546 C   0  0  0  0  0  0  0  0  0  0  0  0
   -4.9727   -0.3166   -1.1502 C   0  0  0  0  0  0  0  0  0  0  0  0
   -5.0783   -0.2230    0.2271 C   0  0  0  0  0  0  0  0  0  0  0  0
   -6.3902    0.0039    0.8812 C   0  0  0  0  0  0  0  0  0  0  0  0
   -7.3987    0.0663   -0.1552 N   0  0  0  0  0  0  0  0  0  0  0  0
   -8.9946    0.3446    0.4446 S   0  0  0  0  0  0  0  0  0  0  0  0
   -9.4697   -0.9729    1.4934 C   0  0  0  0  0  0  0  0  0  0  0  0
   -9.8841    0.4432   -0.7914 O   0  0  0  0  0  0  0  0  0  0  0  0
   -9.0262    1.6645    1.1479 O   0  0  0  0  0  0  0  0  0  0  0  0
   -3.9244   -0.3433    0.9540 C   0  0  0  0  0  0  0  0  0  0  0  0
   -3.9525   -0.2464    2.4616 C   0  0  0  0  0  0  0  0  0  0  0  0
   -2.6937   -0.5526    0.3278 C   0  0  0  0  0  0  0  0  0  0  0  0
   -0.3735    1.2303   -2.6271 C   0  0  0  0  0  0  0  0  0  0  0  0
    0.7737    1.9767   -2.3463 C   0  0  0  0  0  0  0  0  0  0  0  0
    1.4897    1.3373   -1.3635 C   0  0  0  0  0  0  0  0  0  0  0  0
    2.6943    1.5999   -0.7634 C   0  0  0  0  0  0  0  0  0  0  0  0
   -1.3509    1.6456   -3.6628 C   0  0  0  0  0  0  0  0  0  0  0  0
   -1.7523    0.6508   -4.5002 F   0  0  0  0  0  0  0  0  0  0  0  0
   -0.6553    2.5388   -4.5272 F   0  0  0  0  0  0  0  0  0  0  0  0
   -2.3671    2.4394   -3.1703 F   0  0  0  0  0  0  0  0  0  0  0  0
    8.6779   -1.1035    2.9641 H   0  0  0  0  0  0  0  0  0  0  0  0
    8.8023   -2.0594    1.4964 H   0  0  0  0  0  0  0  0  0  0  0  0
    7.1625   -1.7984    2.1393 H   0  0  0  0  0  0  0  0  0  0  0  0
   10.2163    0.2152    1.3953 H   0  0  0  0  0  0  0  0  0  0  0  0
    9.2758    1.1582    2.6348 H   0  0  0  0  0  0  0  0  0  0  0  0
    9.3359    1.6869    0.8792 H   0  0  0  0  0  0  0  0  0  0  0  0
    8.0210   -1.5024   -0.3803 H   0  0  0  0  0  0  0  0  0  0  0  0
    9.5238   -0.4475   -0.4654 H   0  0  0  0  0  0  0  0  0  0  0  0
    7.9023    0.1706   -0.9559 H   0  0  0  0  0  0  0  0  0  0  0  0
    4.6393    2.0910    1.0068 H   0  0  0  0  0  0  0  0  0  0  0  0
    2.9254   -1.0657    1.2174 H   0  0  0  0  0  0  0  0  0  0  0  0
    0.7787   -1.5514    0.1635 H   0  0  0  0  0  0  0  0  0  0  0  0
   -0.8654   -1.7543   -1.2325 H   0  0  0  0  0  0  0  0  0  0  0  0
   -1.5564   -1.3157   -2.7837 H   0  0  0  0  0  0  0  0  0  0  0  0
   -3.7331   -0.5902   -2.8241 H   0  0  0  0  0  0  0  0  0  0  0  0
   -5.9077   -0.2073   -1.7447 H   0  0  0  0  0  0  0  0  0  0  0  0
   -6.5927   -0.7741    1.6319 H   0  0  0  0  0  0  0  0  0  0  0  0
   -6.3515    0.9820    1.4182 H   0  0  0  0  0  0  0  0  0  0  0  0
   -7.3825   -0.8390   -0.7115 H   0  0  0  0  0  0  0  0  0  0  0  0
   -9.6804   -0.5824    2.5155 H   0  0  0  0  0  0  0  0  0  0  0  0
  -10.4331   -1.3794    1.0994 H   0  0  0  0  0  0  0  0  0  0  0  0
   -8.7394   -1.8029    1.5527 H   0  0  0  0  0  0  0  0  0  0  0  0
   -3.8310    0.8015    2.7933 H   0  0  0  0  0  0  0  0  0  0  0  0
   -4.8739   -0.6996    2.8487 H   0  0  0  0  0  0  0  0  0  0  0  0
   -3.1194   -0.8755    2.8221 H   0  0  0  0  0  0  0  0  0  0  0  0
   -1.7849   -0.6443    0.9531 H   0  0  0  0  0  0  0  0  0  0  0  0
    1.0630    2.9147   -2.8137 H   0  0  0  0  0  0  0  0  0  0  0  0
    3.2309    2.4920   -1.0287 H   0  0  0  0  0  0  0  0  0  0  0  0
  1  2  1  0
  2  3  1  0
  2  4  1  0
  2  5  1  0
  5  6  1  0
  6  7  2  0
  6  8  1  0
  8  9  1  0
  9 10  2  0
 10 11  1  0
 11 12  2  0
 12 13  1  0
 13 14  1  0
 14 15  1  0
 15 16  2  0
 16 17  1  0
 17 18  2  0
 18 19  1  0
 19 20  1  0
 20 21  1  0
 21 22  1  0
 21 23  2  0
 21 24  2  0
 18 25  1  0
 25 26  1  0
 25 27  2  0
 13 28  1  0
 28 29  2  0
 29 30  1  0
 30 31  2  0
 28 32  1  0
 32 33  1  0
 32 34  1  0
 32 35  1  0
 31  9  1  0
 30 12  1  0
 27 15  1  0
  1 36  1  0
  1 37  1  0
  1 38  1  0
  3 39  1  0
  3 40  1  0
  3 41  1  0
  4 42  1  0
  4 43  1  0
  4 44  1  0
  8 45  1  0
 10 46  1  0
 11 47  1  0
 14 48  1  0
 14 49  1  0
 16 50  1  0
 17 51  1  0
 19 52  1  0
 19 53  1  0
 20 54  1  0
 22 55  1  0
 22 56  1  0
 22 57  1  0
 26 58  1  0
 26 59  1  0
 26 60  1  0
 27 61  1  0
 29 62  1  0
 31 63  1  0
M  END
$$$$
[H]/C(=C(/[H])C([H])([H])N1C([H])([H])C([H])([H])N(C([H])([H])[C@]2([H])ON=C3c4c([H])c(OC([H])([H])[H])c(OC([H])([H])[H])c([H])c4N([H])C([H])([H])[C@]32[H])C([H])([H])C1([H])[H])c1c([H])c([H])c([H])c([H])c1[H]
     RDKit          3D

 65 69  0  0  0  0  0  0  0  0999 V2000
   -8.2422   -2.2283   -1.3453 C   0  0  0  0  0  0  0  0  0  0  0  0
   -8.0167   -1.4546   -0.1890 O   0  0  0  0  0  0  0  0  0  0  0  0
   -6.8396   -0.7417   -0.0657 C   0  0  0  0  0  0  0  0  0  0  0  0
   -5.8878   -0.7828   -1.0658 C   0  0  0  0  0  0  0  0  0  0  0  0
   -4.7127   -0.0769   -0.9480 C   0  0  0  0  0  0  0  0  0  0  0  0
   -3.7176   -0.0894   -1.9823 N   0  0  0  0  0  0  0  0  0  0  0  0
   -2.7714    1.0122   -1.9915 C   0  0  0  0  0  0  0  0  0  0  0  0
   -2.1420    0.9775   -0.5855 C   0  0  1  0  0  0  0  0  0  0  0  0
   -1.1749    2.0470   -0.3833 C   0  0  2  0  0  0  0  0  0  0  0  0
    0.2506    1.7366   -0.3465 C   0  0  0  0  0  0  0  0  0  0  0  0
    0.8326    0.9562    0.6883 N   0  0  0  0  0  0  0  0  0  0  0  0
    0.4933   -0.3961    0.6687 C   0  0  0  0  0  0  0  0  0  0  0  0
    1.4349   -1.3513    1.3673 C   0  0  0  0  0  0  0  0  0  0  0  0
    2.8194   -1.0336    1.2925 N   0  0  0  0  0  0  0  0  0  0  0  0
    3.5003   -1.5786    0.1703 C   0  0  0  0  0  0  0  0  0  0  0  0
    4.9564   -1.3592    0.2729 C   0  0  0  0  0  0  0  0  0  0  0  0
    5.7138   -0.7118   -0.5888 C   0  0  0  0  0  0  0  0  0  0  0  0
    7.1400   -0.5103   -0.4699 C   0  0  0  0  0  0  0  0  0  0  0  0
    7.8812   -0.9453    0.5939 C   0  0  0  0  0  0  0  0  0  0  0  0
    9.2698   -0.7543    0.6414 C   0  0  0  0  0  0  0  0  0  0  0  0
    9.9115   -0.1199   -0.3920 C   0  0  0  0  0  0  0  0  0  0  0  0
    9.1831    0.3318   -1.4853 C   0  0  0  0  0  0  0  0  0  0  0  0
    7.8158    0.1235   -1.4904 C   0  0  0  0  0  0  0  0  0  0  0  0
    3.0503    0.3575    1.5591 C   0  0  0  0  0  0  0  0  0  0  0  0
    2.2680    1.2446    0.6627 C   0  0  0  0  0  0  0  0  0  0  0  0
   -1.5996    2.6885    0.8308 O   0  0  0  0  0  0  0  0  0  0  0  0
   -2.9022    2.3544    1.0928 N   0  0  0  0  0  0  0  0  0  0  0  0
   -3.2740    1.3981    0.3333 C   0  0  0  0  0  0  0  0  0  0  0  0
   -4.5220    0.6662    0.1956 C   0  0  0  0  0  0  0  0  0  0  0  0
   -5.4830    0.7178    1.2190 C   0  0  0  0  0  0  0  0  0  0  0  0
   -6.6572    0.0118    1.1004 C   0  0  0  0  0  0  0  0  0  0  0  0
   -7.6650   -0.0082    2.0388 O   0  0  0  0  0  0  0  0  0  0  0  0
   -7.5420    0.7409    3.2208 C   0  0  0  0  0  0  0  0  0  0  0  0
   -7.3670   -2.8716   -1.6096 H   0  0  0  0  0  0  0  0  0  0  0  0
   -9.0877   -2.9425   -1.1369 H   0  0  0  0  0  0  0  0  0  0  0  0
   -8.4550   -1.6209   -2.2371 H   0  0  0  0  0  0  0  0  0  0  0  0
   -6.0302   -1.3645   -1.9666 H   0  0  0  0  0  0  0  0  0  0  0  0
   -3.7396   -0.8778   -2.6514 H   0  0  0  0  0  0  0  0  0  0  0  0
   -2.0345    0.9285   -2.7880 H   0  0  0  0  0  0  0  0  0  0  0  0
   -3.3538    1.9469   -2.0721 H   0  0  0  0  0  0  0  0  0  0  0  0
   -1.8916   -0.0552   -0.4125 H   0  0  0  0  0  0  0  0  0  0  0  0
   -1.3511    2.8906   -1.1840 H   0  0  0  0  0  0  0  0  0  0  0  0
    0.5924    1.3201   -1.3677 H   0  0  0  0  0  0  0  0  0  0  0  0
    0.7994    2.7526   -0.3547 H   0  0  0  0  0  0  0  0  0  0  0  0
   -0.4741   -0.5179    1.2511 H   0  0  0  0  0  0  0  0  0  0  0  0
    0.2765   -0.8093   -0.3477 H   0  0  0  0  0  0  0  0  0  0  0  0
    1.2658   -2.3635    0.9017 H   0  0  0  0  0  0  0  0  0  0  0  0
    1.1294   -1.4961    2.4487 H   0  0  0  0  0  0  0  0  0  0  0  0
    3.2858   -2.6515    0.0845 H   0  0  0  0  0  0  0  0  0  0  0  0
    3.0686   -1.1008   -0.7376 H   0  0  0  0  0  0  0  0  0  0  0  0
    5.4804   -1.7750    1.1497 H   0  0  0  0  0  0  0  0  0  0  0  0
    5.1760   -0.3058   -1.4646 H   0  0  0  0  0  0  0  0  0  0  0  0
    7.4054   -1.4475    1.4265 H   0  0  0  0  0  0  0  0  0  0  0  0
    9.8458   -1.0981    1.4749 H   0  0  0  0  0  0  0  0  0  0  0  0
   10.9698    0.0157   -0.3398 H   0  0  0  0  0  0  0  0  0  0  0  0
    9.7190    0.8281   -2.2840 H   0  0  0  0  0  0  0  0  0  0  0  0
    7.2709    0.4875   -2.3521 H   0  0  0  0  0  0  0  0  0  0  0  0
    4.1213    0.5924    1.5002 H   0  0  0  0  0  0  0  0  0  0  0  0
    2.6862    0.5368    2.6045 H   0  0  0  0  0  0  0  0  0  0  0  0
    2.6536    1.2783   -0.3779 H   0  0  0  0  0  0  0  0  0  0  0  0
    2.3875    2.2936    1.0457 H   0  0  0  0  0  0  0  0  0  0  0  0
   -5.3000    1.3189    2.1022 H   0  0  0  0  0  0  0  0  0  0  0  0
   -7.7372    1.8341    3.0329 H   0  0  0  0  0  0  0  0  0  0  0  0
   -6.4963    0.6703    3.5705 H   0  0  0  0  0  0  0  0  0  0  0  0
   -8.1867    0.3816    4.0506 H   0  0  0  0  0  0  0  0  0  0  0  0
  1  2  1  0
  2  3  1  0
  3  4  2  0
  4  5  1  0
  5  6  1  0
  6  7  1  0
  7  8  1  0
  8  9  1  0
  9 10  1  0
 10 11  1  0
 11 12  1  0
 12 13  1  0
 13 14  1  0
 14 15  1  0
 15 16  1  0
 16 17  2  0
 17 18  1  0
 18 19  2  0
 19 20  1  0
 20 21  2  0
 21 22  1  0
 22 23  2  0
 14 24  1  0
 24 25  1  0
  9 26  1  0
 26 27  1  0
 27 28  2  0
 28 29  1  0
 29 30  1  0
 30 31  2  0
 31 32  1  0
 32 33  1  0
 31  3  1  0
 29  5  2  0
 28  8  1  0
 25 11  1  0
 23 18  1  0
  1 34  1  0
  1 35  1  0
  1 36  1  0
  4 37  1  0
  6 38  1  0
  7 39  1  0
  7 40  1  0
  8 41  1  1
  9 42  1  6
 10 43  1  0
 10 44  1  0
 12 45  1  0
 12 46  1  0
 13 47  1  0
 13 48  1  0
 15 49  1  0
 15 50  1  0
 16 51  1  0
 17 52  1  0
 19 53  1  0
 20 54  1  0
 21 55  1  0
 22 56  1  0
 23 57  1  0
 24 58  1  0
 24 59  1  0
 25 60  1  0
 25 61  1  0
 30 62  1  0
 33 63  1  0
 33 64  1  0
 33 65  1  0
M  END
$$$$
[H]OC(=O)c1c([H])c([H])c(-c2c([H])c([H])c(N3C([H])([H])C([H])([H])C4(C(=O)N(c5c([H])c(C(F)(F)F)c([H])c(C(F)(F)F)c5[H])C(=O)N4[C@@]4([H])C([H])([H])C([H])([H])OC([H])([H])[C@@]4([H])O[H])C([H])([H])C3([H])[H])c([H])c2[H])c([H])c1[H]
     RDKit          3D

 77 82  0  0  0  0  0  0  0  0999 V2000
   -3.3944   -4.0410   -1.3929 O   0  0  0  0  0  0  0  0  0  0  0  0
   -3.8815   -3.7350   -0.1579 C   0  0  2  0  0  0  0  0  0  0  0  0
   -5.2031   -3.1382   -0.0594 C   0  0  0  0  0  0  0  0  0  0  0  0
   -5.6826   -3.2192    1.2345 O   0  0  0  0  0  0  0  0  0  0  0  0
   -4.8163   -3.6718    2.1664 C   0  0  0  0  0  0  0  0  0  0  0  0
   -3.3813   -3.2245    2.0982 C   0  0  0  0  0  0  0  0  0  0  0  0
   -2.8653   -2.9718    0.7332 C   0  0  2  0  0  0  0  0  0  0  0  0
   -2.5970   -1.6379    0.3623 N   0  0  0  0  0  0  0  0  0  0  0  0
   -3.4679   -0.5306    0.6176 C   0  0  0  0  0  0  0  0  0  0  0  0
   -4.2899   -0.3351    1.5636 O   0  0  0  0  0  0  0  0  0  0  0  0
   -3.3048    0.4599   -0.4060 N   0  0  0  0  0  0  0  0  0  0  0  0
   -2.3094   -0.0663   -1.2849 C   0  0  0  0  0  0  0  0  0  0  0  0
   -2.1827    0.2040   -2.4806 O   0  0  0  0  0  0  0  0  0  0  0  0
   -1.5143   -0.9871   -0.3615 C   0  0  0  0  0  0  0  0  0  0  0  0
   -0.5777   -1.7416   -1.1689 C   0  0  0  0  0  0  0  0  0  0  0  0
    0.8082   -1.9868   -0.5367 C   0  0  0  0  0  0  0  0  0  0  0  0
    1.4146   -0.6975   -0.3003 N   0  0  0  0  0  0  0  0  0  0  0  0
    0.4774    0.4268   -0.2573 C   0  0  0  0  0  0  0  0  0  0  0  0
   -0.7133   -0.0827    0.5801 C   0  0  0  0  0  0  0  0  0  0  0  0
    2.7959   -0.5676   -0.1509 C   0  0  0  0  0  0  0  0  0  0  0  0
    3.3175    0.5735    0.4180 C   0  0  0  0  0  0  0  0  0  0  0  0
    4.6795    0.7621    0.5222 C   0  0  0  0  0  0  0  0  0  0  0  0
    5.5930   -0.1688    0.0706 C   0  0  0  0  0  0  0  0  0  0  0  0
    5.0727   -1.3084   -0.4894 C   0  0  0  0  0  0  0  0  0  0  0  0
    3.6815   -1.5182   -0.6065 C   0  0  0  0  0  0  0  0  0  0  0  0
    7.0086    0.1638    0.1658 C   0  0  0  0  0  0  0  0  0  0  0  0
    7.3471    1.5256    0.0029 C   0  0  0  0  0  0  0  0  0  0  0  0
    8.6650    1.9436    0.0444 C   0  0  0  0  0  0  0  0  0  0  0  0
    9.7040    1.0546    0.2481 C   0  0  0  0  0  0  0  0  0  0  0  0
    9.3716   -0.2788    0.4130 C   0  0  0  0  0  0  0  0  0  0  0  0
    8.0340   -0.7036    0.3682 C   0  0  0  0  0  0  0  0  0  0  0  0
   11.0868    1.4667    0.2455 C   0  0  0  0  0  0  0  0  0  0  0  0
   11.4245    2.7727    0.0019 O   0  0  0  0  0  0  0  0  0  0  0  0
   11.9963    0.6450    0.4618 O   0  0  0  0  0  0  0  0  0  0  0  0
   -4.0261    1.6769   -0.4531 C   0  0  0  0  0  0  0  0  0  0  0  0
   -5.3661    1.6947   -0.1184 C   0  0  0  0  0  0  0  0  0  0  0  0
   -6.1086    2.8681   -0.1113 C   0  0  0  0  0  0  0  0  0  0  0  0
   -5.5003    4.0632   -0.4486 C   0  0  0  0  0  0  0  0  0  0  0  0
   -4.1660    4.0264   -0.7823 C   0  0  0  0  0  0  0  0  0  0  0  0
   -3.4140    2.8526   -0.7934 C   0  0  0  0  0  0  0  0  0  0  0  0
   -3.5523    5.3552   -1.1272 C   0  0  0  0  0  0  0  0  0  0  0  0
   -4.4655    6.0552   -1.9289 F   0  0  0  0  0  0  0  0  0  0  0  0
   -3.4293    6.0632    0.0453 F   0  0  0  0  0  0  0  0  0  0  0  0
   -2.3788    5.2214   -1.8156 F   0  0  0  0  0  0  0  0  0  0  0  0
   -7.5460    2.8467    0.2597 C   0  0  0  0  0  0  0  0  0  0  0  0
   -7.6990    2.9727    1.6357 F   0  0  0  0  0  0  0  0  0  0  0  0
   -8.1833    1.7010   -0.1440 F   0  0  0  0  0  0  0  0  0  0  0  0
   -8.1501    3.9233   -0.3226 F   0  0  0  0  0  0  0  0  0  0  0  0
   -2.5211   -4.5162   -1.3681 H   0  0  0  0  0  0  0  0  0  0  0  0
   -3.9828   -4.7690    0.3603 H   0  0  0  0  0  0  0  0  0  0  0  0
   -5.2419   -2.1053   -0.4146 H   0  0  0  0  0  0  0  0  0  0  0  0
   -5.8895   -3.7221   -0.7648 H   0  0  0  0  0  0  0  0  0  0  0  0
   -5.2009   -3.3313    3.1656 H   0  0  0  0  0  0  0  0  0  0  0  0
   -4.9518   -4.7825    2.2144 H   0  0  0  0  0  0  0  0  0  0  0  0
   -2.8219   -4.1133    2.4980 H   0  0  0  0  0  0  0  0  0  0  0  0
   -3.1374   -2.4271    2.8360 H   0  0  0  0  0  0  0  0  0  0  0  0
   -1.9038   -3.5389    0.5481 H   0  0  0  0  0  0  0  0  0  0  0  0
   -0.9362   -2.6458   -1.6967 H   0  0  0  0  0  0  0  0  0  0  0  0
   -0.2866   -1.0769   -2.0574 H   0  0  0  0  0  0  0  0  0  0  0  0
    0.7629   -2.6392    0.3346 H   0  0  0  0  0  0  0  0  0  0  0  0
    1.3927   -2.5129   -1.3442 H   0  0  0  0  0  0  0  0  0  0  0  0
    0.1318    0.7057   -1.2810 H   0  0  0  0  0  0  0  0  0  0  0  0
    0.8609    1.3357    0.1978 H   0  0  0  0  0  0  0  0  0  0  0  0
   -1.2429    0.8079    0.8941 H   0  0  0  0  0  0  0  0  0  0  0  0
   -0.2842   -0.6363    1.4251 H   0  0  0  0  0  0  0  0  0  0  0  0
    2.6518    1.3421    0.7968 H   0  0  0  0  0  0  0  0  0  0  0  0
    5.0174    1.6731    0.9782 H   0  0  0  0  0  0  0  0  0  0  0  0
    5.7809   -2.0555   -0.8443 H   0  0  0  0  0  0  0  0  0  0  0  0
    3.3296   -2.4262   -1.0727 H   0  0  0  0  0  0  0  0  0  0  0  0
    6.5663    2.2208   -0.1482 H   0  0  0  0  0  0  0  0  0  0  0  0
    8.9378    2.9981   -0.0910 H   0  0  0  0  0  0  0  0  0  0  0  0
   10.1718   -1.0004    0.5809 H   0  0  0  0  0  0  0  0  0  0  0  0
    7.8142   -1.7416    0.4944 H   0  0  0  0  0  0  0  0  0  0  0  0
   11.0155    3.5203    0.5443 H   0  0  0  0  0  0  0  0  0  0  0  0
   -5.9151    0.8004    0.1635 H   0  0  0  0  0  0  0  0  0  0  0  0
   -6.0701    4.9891   -0.4381 H   0  0  0  0  0  0  0  0  0  0  0  0
   -2.3590    2.9409   -1.0790 H   0  0  0  0  0  0  0  0  0  0  0  0
  1  2  1  0
  2  3  1  0
  3  4  1  0
  4  5  1  0
  5  6  1  0
  6  7  1  0
  7  8  1  0
  8  9  1  0
  9 10  2  0
  9 11  1  0
 11 12  1  0
 12 13  2  0
 12 14  1  0
 14 15  1  0
 15 16  1  0
 16 17  1  0
 17 18  1  0
 18 19  1  0
 17 20  1  0
 20 21  2  0
 21 22  1  0
 22 23  2  0
 23 24  1  0
 24 25  2  0
 23 26  1  0
 26 27  2  0
 27 28  1  0
 28 29  2  0
 29 30  1  0
 30 31  2  0
 29 32  1  0
 32 33  1  0
 32 34  2  0
 11 35  1  0
 35 36  2  0
 36 37  1  0
 37 38  2  0
 38 39  1  0
 39 40  2  0
 39 41  1  0
 41 42  1  0
 41 43  1  0
 41 44  1  0
 37 45  1  0
 45 46  1  0
 45 47  1  0
 45 48  1  0
  7  2  1  0
 14  8  1  0
 19 14  1  0
 25 20  1  0
 31 26  1  0
 40 35  1  0
  1 49  1  0
  2 50  1  1
  3 51  1  0
  3 52  1  0
  5 53  1  0
  5 54  1  0
  6 55  1  0
  6 56  1  0
  7 57  1  1
 15 58  1  0
 15 59  1  0
 16 60  1  0
 16 61  1  0
 18 62  1  0
 18 63  1  0
 19 64  1  0
 19 65  1  0
 21 66  1  0
 22 67  1  0
 24 68  1  0
 25 69  1  0
 27 70  1  0
 28 71  1  0
 30 72  1  0
 31 73  1  0
 33 74  1  0
 36 75  1  0
 38 76  1  0
 40 77  1  0
M  END
$$$$
[H]OC(=O)C#CC(c1c([H])c([H])c(F)c(C([H])([H])C([H])([H])N2C([H])([H])[C@]([H])(N([H])C(=O)c3c([H])c(F)c(F)c(F)c3F)[C@]([H])(C([H])([H])[H])C2([H])[H])c1[H])(C([H])([H])[H])C([H])([H])[H]
     RDKit          3D

 61 63  0  0  0  0  0  0  0  0999 V2000
   -2.6262   -1.3287   -2.2338 C   0  0  0  0  0  0  0  0  0  0  0  0
   -2.2780   -0.0028   -1.5840 C   0  0  2  0  0  0  0  0  0  0  0  0
   -0.7917    0.1031   -1.4378 C   0  0  0  0  0  0  0  0  0  0  0  0
   -0.4036   -0.5961   -0.2118 N   0  0  0  0  0  0  0  0  0  0  0  0
    0.1199    0.3676    0.7262 C   0  0  0  0  0  0  0  0  0  0  0  0
    1.0567   -0.2724    1.7211 C   0  0  0  0  0  0  0  0  0  0  0  0
    2.2113   -0.7837    0.8906 C   0  0  0  0  0  0  0  0  0  0  0  0
    3.2053    0.1463    0.6343 C   0  0  0  0  0  0  0  0  0  0  0  0
    4.2376   -0.1857   -0.1990 C   0  0  0  0  0  0  0  0  0  0  0  0
    4.2765   -1.4360   -0.7688 C   0  0  0  0  0  0  0  0  0  0  0  0
    3.2913   -2.3796   -0.5198 C   0  0  0  0  0  0  0  0  0  0  0  0
    2.2409   -2.0207    0.3366 C   0  0  0  0  0  0  0  0  0  0  0  0
    1.3001   -2.9500    0.6138 F   0  0  0  0  0  0  0  0  0  0  0  0
    5.2904    0.8266   -0.4957 C   0  0  0  0  0  0  0  0  0  0  0  0
    4.8094    2.2163   -0.1131 C   0  0  0  0  0  0  0  0  0  0  0  0
    5.5983    0.8258   -1.9796 C   0  0  0  0  0  0  0  0  0  0  0  0
    6.4393    0.4818    0.3326 C   0  0  0  0  0  0  0  0  0  0  0  0
    7.4001    0.2046    0.9987 C   0  0  0  0  0  0  0  0  0  0  0  0
    8.5588   -0.0990    1.7977 C   0  0  0  0  0  0  0  0  0  0  0  0
    9.7689    0.5823    1.6506 O   0  0  0  0  0  0  0  0  0  0  0  0
    8.4667   -1.0102    2.6539 O   0  0  0  0  0  0  0  0  0  0  0  0
   -1.6875   -1.0397    0.3942 C   0  0  0  0  0  0  0  0  0  0  0  0
   -2.6459   -0.0205   -0.0752 C   0  0  2  0  0  0  0  0  0  0  0  0
   -4.0517   -0.2964    0.0631 N   0  0  0  0  0  0  0  0  0  0  0  0
   -4.8320    0.6785    0.7342 C   0  0  0  0  0  0  0  0  0  0  0  0
   -4.2538    1.7045    1.2094 O   0  0  0  0  0  0  0  0  0  0  0  0
   -6.2633    0.5076    0.8688 C   0  0  0  0  0  0  0  0  0  0  0  0
   -6.9032    1.0669    1.9968 C   0  0  0  0  0  0  0  0  0  0  0  0
   -8.2614    0.9389    2.1771 C   0  0  0  0  0  0  0  0  0  0  0  0
   -8.8727    1.4827    3.2665 F   0  0  0  0  0  0  0  0  0  0  0  0
   -9.0565    0.2668    1.2788 C   0  0  0  0  0  0  0  0  0  0  0  0
  -10.4018    0.1664    1.5017 F   0  0  0  0  0  0  0  0  0  0  0  0
   -8.4602   -0.2859    0.1754 C   0  0  0  0  0  0  0  0  0  0  0  0
   -9.2100   -0.9434   -0.7164 F   0  0  0  0  0  0  0  0  0  0  0  0
   -7.0750   -0.1580   -0.0136 C   0  0  0  0  0  0  0  0  0  0  0  0
   -6.5346   -0.6928   -1.1338 F   0  0  0  0  0  0  0  0  0  0  0  0
   -3.2767   -1.1780   -3.1380 H   0  0  0  0  0  0  0  0  0  0  0  0
   -1.6798   -1.8071   -2.6314 H   0  0  0  0  0  0  0  0  0  0  0  0
   -3.1577   -2.0276   -1.5877 H   0  0  0  0  0  0  0  0  0  0  0  0
   -2.7410    0.8474   -2.1000 H   0  0  0  0  0  0  0  0  0  0  0  0
   -0.5353    1.1801   -1.3249 H   0  0  0  0  0  0  0  0  0  0  0  0
   -0.2385   -0.2807   -2.3213 H   0  0  0  0  0  0  0  0  0  0  0  0
   -0.6860    0.8470    1.3549 H   0  0  0  0  0  0  0  0  0  0  0  0
    0.6115    1.2178    0.2036 H   0  0  0  0  0  0  0  0  0  0  0  0
    0.5589   -1.1182    2.2310 H   0  0  0  0  0  0  0  0  0  0  0  0
    1.4587    0.4801    2.4206 H   0  0  0  0  0  0  0  0  0  0  0  0
    3.1559    1.1524    1.1084 H   0  0  0  0  0  0  0  0  0  0  0  0
    5.0914   -1.7188   -1.4322 H   0  0  0  0  0  0  0  0  0  0  0  0
    3.2814   -3.3598   -0.9381 H   0  0  0  0  0  0  0  0  0  0  0  0
    4.8837    2.3069    0.9788 H   0  0  0  0  0  0  0  0  0  0  0  0
    3.7734    2.3435   -0.4889 H   0  0  0  0  0  0  0  0  0  0  0  0
    5.4838    2.9640   -0.5669 H   0  0  0  0  0  0  0  0  0  0  0  0
    6.1544    1.7685   -2.1969 H   0  0  0  0  0  0  0  0  0  0  0  0
    4.6340    0.7866   -2.5076 H   0  0  0  0  0  0  0  0  0  0  0  0
    6.2561   -0.0220   -2.2490 H   0  0  0  0  0  0  0  0  0  0  0  0
    9.7918    1.2759    0.8935 H   0  0  0  0  0  0  0  0  0  0  0  0
   -1.8871   -2.0577   -0.0083 H   0  0  0  0  0  0  0  0  0  0  0  0
   -1.5382   -1.0576    1.4958 H   0  0  0  0  0  0  0  0  0  0  0  0
   -2.3668    0.9770    0.3068 H   0  0  0  0  0  0  0  0  0  0  0  0
   -4.4239   -1.1755   -0.3012 H   0  0  0  0  0  0  0  0  0  0  0  0
   -6.2668    1.5909    2.6920 H   0  0  0  0  0  0  0  0  0  0  0  0
  1  2  1  0
  2  3  1  0
  3  4  1  0
  4  5  1  0
  5  6  1  0
  6  7  1  0
  7  8  2  0
  8  9  1  0
  9 10  2  0
 10 11  1  0
 11 12  2  0
 12 13  1  0
  9 14  1  0
 14 15  1  0
 14 16  1  0
 14 17  1  0
 17 18  3  0
 18 19  1  0
 19 20  1  0
 19 21  2  0
  4 22  1  0
 22 23  1  0
 23 24  1  0
 24 25  1  0
 25 26  2  0
 25 27  1  0
 27 28  2  0
 28 29  1  0
 29 30  1  0
 29 31  2  0
 31 32  1  0
 31 33  1  0
 33 34  1  0
 33 35  2  0
 35 36  1  0
 23  2  1  0
 35 27  1  0
 12  7  1  0
  1 37  1  0
  1 38  1  0
  1 39  1  0
  2 40  1  6
  3 41  1  0
  3 42  1  0
  5 43  1  0
  5 44  1  0
  6 45  1  0
  6 46  1  0
  8 47  1  0
 10 48  1  0
 11 49  1  0
 15 50  1  0
 15 51  1  0
 15 52  1  0
 16 53  1  0
 16 54  1  0
 16 55  1  0
 20 56  1  0
 22 57  1  0
 22 58  1  0
 23 59  1  1
 24 60  1  0
 28 61  1  0
M  END
$$$$
[H]OC(=O)[C@]1([H])C([H])([H])[C@]([H])(OC([H])([H])c2c([H])c(F)c(F)c(F)c2[H])[C@@]1([H])N([H])[H]
     RDKit          3D

 31 32  0  0  0  0  0  0  0  0999 V2000
   -0.9512    0.2126    2.3193 N   0  0  0  0  0  0  0  0  0  0  0  0
   -1.3280   -0.2340    0.9906 C   0  0  1  0  0  0  0  0  0  0  0  0
   -2.7353    0.0984    0.6477 C   0  0  1  0  0  0  0  0  0  0  0  0
   -2.2248    1.4175    0.0619 C   0  0  0  0  0  0  0  0  0  0  0  0
   -0.8519    0.7884   -0.0442 C   0  0  2  0  0  0  0  0  0  0  0  0
   -0.5751    0.1447   -1.2172 O   0  0  0  0  0  0  0  0  0  0  0  0
    0.6315    0.4076   -1.8041 C   0  0  0  0  0  0  0  0  0  0  0  0
    1.8099    0.0643   -0.9787 C   0  0  0  0  0  0  0  0  0  0  0  0
    2.2326   -1.2456   -0.9438 C   0  0  0  0  0  0  0  0  0  0  0  0
    3.3259   -1.6184   -0.1962 C   0  0  0  0  0  0  0  0  0  0  0  0
    3.7455   -2.9237   -0.1627 F   0  0  0  0  0  0  0  0  0  0  0  0
    3.9881   -0.6466    0.5178 C   0  0  0  0  0  0  0  0  0  0  0  0
    5.0679   -1.0185    1.2554 F   0  0  0  0  0  0  0  0  0  0  0  0
    3.5769    0.6780    0.4948 C   0  0  0  0  0  0  0  0  0  0  0  0
    4.2477    1.6007    1.2047 F   0  0  0  0  0  0  0  0  0  0  0  0
    2.4704    1.0209   -0.2694 C   0  0  0  0  0  0  0  0  0  0  0  0
   -3.4031   -0.7300   -0.3557 C   0  0  0  0  0  0  0  0  0  0  0  0
   -4.7192   -0.4300   -0.6857 O   0  0  0  0  0  0  0  0  0  0  0  0
   -2.8863   -1.7058   -0.9574 O   0  0  0  0  0  0  0  0  0  0  0  0
   -1.6993    0.0601    3.0257 H   0  0  0  0  0  0  0  0  0  0  0  0
   -0.6774    1.2042    2.3574 H   0  0  0  0  0  0  0  0  0  0  0  0
   -0.9791   -1.2633    0.7789 H   0  0  0  0  0  0  0  0  0  0  0  0
   -3.3554    0.2082    1.5503 H   0  0  0  0  0  0  0  0  0  0  0  0
   -2.6947    1.7111   -0.8794 H   0  0  0  0  0  0  0  0  0  0  0  0
   -2.2541    2.1798    0.8712 H   0  0  0  0  0  0  0  0  0  0  0  0
   -0.0815    1.4747    0.3394 H   0  0  0  0  0  0  0  0  0  0  0  0
    0.6807   -0.2370   -2.7285 H   0  0  0  0  0  0  0  0  0  0  0  0
    0.6849    1.4525   -2.1906 H   0  0  0  0  0  0  0  0  0  0  0  0
    1.6986   -2.0176   -1.5171 H   0  0  0  0  0  0  0  0  0  0  0  0
    2.1561    2.0529   -0.2839 H   0  0  0  0  0  0  0  0  0  0  0  0
   -4.9002    0.4289   -1.2006 H   0  0  0  0  0  0  0  0  0  0  0  0
  1  2  1  0
  2  3  1  0
  3  4  1  0
  4  5  1  0
  5  6  1  0
  6  7  1  0
  7  8  1  0
  8  9  2  0
  9 10  1  0
 10 11  1  0
 10 12  2  0
 12 13  1  0
 12 14  1  0
 14 15  1  0
 14 16  2  0
  3 17  1  0
 17 18  1  0
 17 19  2  0
  5  2  1  0
 16  8  1  0
  1 20  1  0
  1 21  1  0
  2 22  1  6
  3 23  1  1
  4 24  1  0
  4 25  1  0
  5 26  1  1
  7 27  1  0
  7 28  1  0
  9 29  1  0
 16 30  1  0
 18 31  1  0
M  END
$$$$
[H]/C(=C1/C(=O)N([H])c2c([H])c([H])c([H])c([H])c21)c1c(C([H])([H])[H])c(-c2c([H])c([H])c(OC([H])([H])[H])c(OC([H])([H])[H])c2[H])c([H])n1[H]
     RDKit          3D

 47 50  0  0  0  0  0  0  0  0999 V2000
    7.1982   -0.7759   -1.2314 C   0  0  0  0  0  0  0  0  0  0  0  0
    6.4170    0.0949   -0.4787 O   0  0  0  0  0  0  0  0  0  0  0  0
    5.0481   -0.1867   -0.3044 C   0  0  0  0  0  0  0  0  0  0  0  0
    4.4716   -1.2775   -0.8481 C   0  0  0  0  0  0  0  0  0  0  0  0
    3.1361   -1.5701   -0.7003 C   0  0  0  0  0  0  0  0  0  0  0  0
    2.3198   -0.7108    0.0249 C   0  0  0  0  0  0  0  0  0  0  0  0
    2.8855    0.3865    0.5766 C   0  0  0  0  0  0  0  0  0  0  0  0
    4.2353    0.7200    0.4594 C   0  0  0  0  0  0  0  0  0  0  0  0
    4.8306    1.7572    0.9648 O   0  0  0  0  0  0  0  0  0  0  0  0
    5.4213    2.7876    1.4669 C   0  0  0  0  0  0  0  0  0  0  0  0
    0.8720   -1.0778    0.0034 C   0  0  0  0  0  0  0  0  0  0  0  0
    0.4568   -2.3963   -0.0158 C   0  0  0  0  0  0  0  0  0  0  0  0
   -0.9187   -2.3878   -0.1883 N   0  0  0  0  0  0  0  0  0  0  0  0
   -1.4072   -1.1787   -0.2693 C   0  0  0  0  0  0  0  0  0  0  0  0
   -2.6510   -0.5036   -0.4836 C   0  0  0  0  0  0  0  0  0  0  0  0
   -3.8375   -0.7383   -0.0197 C   0  0  0  0  0  0  0  0  0  0  0  0
   -4.2362   -1.8003    0.8411 C   0  0  0  0  0  0  0  0  0  0  0  0
   -3.5494   -2.7672    1.2058 O   0  0  0  0  0  0  0  0  0  0  0  0
   -5.5879   -1.5376    1.2145 N   0  0  0  0  0  0  0  0  0  0  0  0
   -6.0242   -0.3210    0.5958 C   0  0  0  0  0  0  0  0  0  0  0  0
   -7.1989    0.4361    0.6199 C   0  0  0  0  0  0  0  0  0  0  0  0
   -7.3246    1.6407   -0.0773 C   0  0  0  0  0  0  0  0  0  0  0  0
   -6.2803    2.1287   -0.8300 C   0  0  0  0  0  0  0  0  0  0  0  0
   -5.1239    1.3837   -0.8464 C   0  0  0  0  0  0  0  0  0  0  0  0
   -5.0046    0.1903   -0.1541 C   0  0  0  0  0  0  0  0  0  0  0  0
   -0.2249   -0.3056   -0.1419 C   0  0  0  0  0  0  0  0  0  0  0  0
   -0.2304    1.1700   -0.1522 C   0  0  0  0  0  0  0  0  0  0  0  0
    8.2446   -0.4947   -1.0788 H   0  0  0  0  0  0  0  0  0  0  0  0
    6.9425   -0.6047   -2.3316 H   0  0  0  0  0  0  0  0  0  0  0  0
    6.9892   -1.8288   -0.9605 H   0  0  0  0  0  0  0  0  0  0  0  0
    5.0950   -1.9958   -1.4443 H   0  0  0  0  0  0  0  0  0  0  0  0
    2.7166   -2.4458   -1.1210 H   0  0  0  0  0  0  0  0  0  0  0  0
    2.2975    1.0970    1.1515 H   0  0  0  0  0  0  0  0  0  0  0  0
    6.4555    2.6562    1.9717 H   0  0  0  0  0  0  0  0  0  0  0  0
    5.6810    3.6438    0.7055 H   0  0  0  0  0  0  0  0  0  0  0  0
    4.8117    3.4045    2.2788 H   0  0  0  0  0  0  0  0  0  0  0  0
    1.0857   -3.2579    0.1013 H   0  0  0  0  0  0  0  0  0  0  0  0
   -1.4616   -3.3142   -0.2834 H   0  0  0  0  0  0  0  0  0  0  0  0
   -2.6458    0.3779   -1.2008 H   0  0  0  0  0  0  0  0  0  0  0  0
   -6.1525   -2.1592    1.8420 H   0  0  0  0  0  0  0  0  0  0  0  0
   -8.0223    0.0701    1.2034 H   0  0  0  0  0  0  0  0  0  0  0  0
   -8.2111    2.2277   -0.0550 H   0  0  0  0  0  0  0  0  0  0  0  0
   -6.3765    3.0725   -1.3562 H   0  0  0  0  0  0  0  0  0  0  0  0
   -4.2871    1.7345   -1.4338 H   0  0  0  0  0  0  0  0  0  0  0  0
   -1.2032    1.5159   -0.5725 H   0  0  0  0  0  0  0  0  0  0  0  0
    0.5286    1.5627   -0.8123 H   0  0  0  0  0  0  0  0  0  0  0  0
   -0.1800    1.5778    0.8901 H   0  0  0  0  0  0  0  0  0  0  0  0
  1  2  1  0
  2  3  1  0
  3  4  2  0
  4  5  1  0
  5  6  2  0
  6  7  1  0
  7  8  2  0
  8  9  1  0
  9 10  1  0
  6 11  1  0
 11 12  2  0
 12 13  1  0
 13 14  1  0
 14 15  1  0
 15 16  2  0
 16 17  1  0
 17 18  2  0
 17 19  1  0
 19 20  1  0
 20 21  2  0
 21 22  1  0
 22 23  2  0
 23 24  1  0
 24 25  2  0
 14 26  2  0
 26 27  1  0
  8  3  1  0
 26 11  1  0
 25 16  1  0
 25 20  1  0
  1 28  1  0
  1 29  1  0
  1 30  1  0
  4 31  1  0
  5 32  1  0
  7 33  1  0
 10 34  1  0
 10 35  1  0
 10 36  1  0
 12 37  1  0
 13 38  1  0
 15 39  1  0
 19 40  1  0
 21 41  1  0
 22 42  1  0
 23 43  1  0
 24 44  1  0
 27 45  1  0
 27 46  1  0
 27 47  1  0
M  END
$$$$
[H]c1nc(N([H])[H])c(C(=O)N([H])c2nc([H])c([H])c([H])c2-c2nc(N([H])C([H])([H])C([H])([H])N(C([H])([H])[H])C([H])([H])[H])nc([H])c2[H])nc1-c1c([H])c([H])c([H])c(Cl)c1[H]
     RDKit          3D

 59 62  0  0  0  0  0  0  0  0999 V2000
    6.5628    1.3871    3.5336 C   0  0  0  0  0  0  0  0  0  0  0  0
    6.2170    1.6562    2.1702 N   0  0  0  0  0  0  0  0  0  0  0  0
    5.5094    2.9169    2.1044 C   0  0  0  0  0  0  0  0  0  0  0  0
    5.4127    0.5624    1.6561 C   0  0  0  0  0  0  0  0  0  0  0  0
    5.0764    0.8855    0.2344 C   0  0  0  0  0  0  0  0  0  0  0  0
    4.2787   -0.0971   -0.4404 N   0  0  0  0  0  0  0  0  0  0  0  0
    2.9527   -0.4543   -0.0311 C   0  0  0  0  0  0  0  0  0  0  0  0
    2.3696    0.1338    1.0369 N   0  0  0  0  0  0  0  0  0  0  0  0
    1.1268   -0.2189    1.4009 C   0  0  0  0  0  0  0  0  0  0  0  0
    0.4204   -1.1748    0.7085 C   0  0  0  0  0  0  0  0  0  0  0  0
    0.9902   -1.7817   -0.3767 C   0  0  0  0  0  0  0  0  0  0  0  0
    2.2632   -1.3701   -0.6880 N   0  0  0  0  0  0  0  0  0  0  0  0
    0.4418   -2.8565   -1.1598 C   0  0  0  0  0  0  0  0  0  0  0  0
    1.3465   -3.8371   -1.6225 C   0  0  0  0  0  0  0  0  0  0  0  0
    0.8982   -4.8943   -2.3753 C   0  0  0  0  0  0  0  0  0  0  0  0
   -0.4356   -5.0166   -2.6911 C   0  0  0  0  0  0  0  0  0  0  0  0
   -1.2676   -4.0880   -2.2516 N   0  0  0  0  0  0  0  0  0  0  0  0
   -0.8560   -3.0022   -1.4902 C   0  0  0  0  0  0  0  0  0  0  0  0
   -1.8087   -2.0011   -1.2070 N   0  0  0  0  0  0  0  0  0  0  0  0
   -3.1931   -2.2787   -1.5161 C   0  0  0  0  0  0  0  0  0  0  0  0
   -3.5207   -3.3913   -1.9614 O   0  0  0  0  0  0  0  0  0  0  0  0
   -4.2209   -1.2644   -1.3119 C   0  0  0  0  0  0  0  0  0  0  0  0
   -3.9017   -0.0513   -0.8330 N   0  0  0  0  0  0  0  0  0  0  0  0
   -4.8026    0.9313   -0.6210 C   0  0  0  0  0  0  0  0  0  0  0  0
   -6.1085    0.6254   -0.9274 C   0  0  0  0  0  0  0  0  0  0  0  0
   -6.4462   -0.5928   -1.4109 N   0  0  0  0  0  0  0  0  0  0  0  0
   -5.5316   -1.5583   -1.6148 C   0  0  0  0  0  0  0  0  0  0  0  0
   -5.9181   -2.8337   -2.1258 N   0  0  0  0  0  0  0  0  0  0  0  0
   -4.4320    2.2283   -0.1045 C   0  0  0  0  0  0  0  0  0  0  0  0
   -5.3166    3.2511    0.1242 C   0  0  0  0  0  0  0  0  0  0  0  0
   -4.9119    4.4855    0.6237 C   0  0  0  0  0  0  0  0  0  0  0  0
   -3.5758    4.6774    0.8946 C   0  0  0  0  0  0  0  0  0  0  0  0
   -2.6534    3.6733    0.6782 C   0  0  0  0  0  0  0  0  0  0  0  0
   -0.9432    3.9162    1.0240 Cl  0  0  0  0  0  0  0  0  0  0  0  0
   -3.0970    2.4740    0.1853 C   0  0  0  0  0  0  0  0  0  0  0  0
    6.7364    0.2899    3.6684 H   0  0  0  0  0  0  0  0  0  0  0  0
    7.5393    1.8758    3.7900 H   0  0  0  0  0  0  0  0  0  0  0  0
    5.7462    1.7176    4.2129 H   0  0  0  0  0  0  0  0  0  0  0  0
    5.7895    3.6040    2.9162 H   0  0  0  0  0  0  0  0  0  0  0  0
    5.7861    3.3938    1.1315 H   0  0  0  0  0  0  0  0  0  0  0  0
    4.3981    2.7778    2.1853 H   0  0  0  0  0  0  0  0  0  0  0  0
    6.1050   -0.3278    1.6280 H   0  0  0  0  0  0  0  0  0  0  0  0
    4.5713    0.3933    2.3264 H   0  0  0  0  0  0  0  0  0  0  0  0
    6.0556    0.9668   -0.3073 H   0  0  0  0  0  0  0  0  0  0  0  0
    4.6310    1.9164    0.1330 H   0  0  0  0  0  0  0  0  0  0  0  0
    4.6659   -0.6027   -1.2914 H   0  0  0  0  0  0  0  0  0  0  0  0
    0.7104    0.2821    2.2602 H   0  0  0  0  0  0  0  0  0  0  0  0
   -0.5702   -1.4734    1.0432 H   0  0  0  0  0  0  0  0  0  0  0  0
    2.3892   -3.7501   -1.3812 H   0  0  0  0  0  0  0  0  0  0  0  0
    1.5583   -5.6721   -2.7525 H   0  0  0  0  0  0  0  0  0  0  0  0
   -0.8341   -5.8418   -3.2849 H   0  0  0  0  0  0  0  0  0  0  0  0
   -1.5762   -1.0486   -0.8322 H   0  0  0  0  0  0  0  0  0  0  0  0
   -6.9146    1.3445   -0.7945 H   0  0  0  0  0  0  0  0  0  0  0  0
   -6.3918   -3.5483   -1.5482 H   0  0  0  0  0  0  0  0  0  0  0  0
   -5.7132   -3.0468   -3.1165 H   0  0  0  0  0  0  0  0  0  0  0  0
   -6.3685    3.1355   -0.0764 H   0  0  0  0  0  0  0  0  0  0  0  0
   -5.6465    5.2650    0.7888 H   0  0  0  0  0  0  0  0  0  0  0  0
   -3.2114    5.6252    1.2862 H   0  0  0  0  0  0  0  0  0  0  0  0
   -2.3811    1.6828    0.0131 H   0  0  0  0  0  0  0  0  0  0  0  0
  1  2  1  0
  2  3  1  0
  2  4  1  0
  4  5  1  0
  5  6  1  0
  6  7  1  0
  7  8  2  0
  8  9  1  0
  9 10  2  0
 10 11  1  0
 11 12  2  0
 11 13  1  0
 13 14  2  0
 14 15  1  0
 15 16  2  0
 16 17  1  0
 17 18  2  0
 18 19  1  0
 19 20  1  0
 20 21  2  0
 20 22  1  0
 22 23  2  0
 23 24  1  0
 24 25  2  0
 25 26  1  0
 26 27  2  0
 27 28  1  0
 24 29  1  0
 29 30  2  0
 30 31  1  0
 31 32  2  0
 32 33  1  0
 33 34  1  0
 33 35  2  0
 12  7  1  0
 18 13  1  0
 27 22  1  0
 35 29  1  0
  1 36  1  0
  1 37  1  0
  1 38  1  0
  3 39  1  0
  3 40  1  0
  3 41  1  0
  4 42  1  0
  4 43  1  0
  5 44  1  0
  5 45  1  0
  6 46  1  0
  9 47  1  0
 10 48  1  0
 14 49  1  0
 15 50  1  0
 16 51  1  0
 19 52  1  0
 25 53  1  0
 28 54  1  0
 28 55  1  0
 30 56  1  0
 31 57  1  0
 32 58  1  0
 35 59  1  0
M  END
$$$$
[H]c1sc(-n2c(C([H])([H])c3c([H])c([H])c(C([H])([H])[H])c([H])c3[H])nc3c([H])c([H])c([H])c([H])c3c2=O)c(C([H])([H])[H])c1[H]
     RDKit          3D

 43 46  0  0  0  0  0  0  0  0999 V2000
   -1.1346   -1.8462   -1.9352 C   0  0  0  0  0  0  0  0  0  0  0  0
   -1.4724   -2.4878   -0.5989 C   0  0  0  0  0  0  0  0  0  0  0  0
   -1.5947   -3.8188   -0.4383 C   0  0  0  0  0  0  0  0  0  0  0  0
   -1.8981   -4.2755    0.8134 C   0  0  0  0  0  0  0  0  0  0  0  0
   -2.0046   -2.8444    1.7297 S   0  0  0  0  0  0  0  0  0  0  0  0
   -1.6609   -1.6962    0.5006 C   0  0  0  0  0  0  0  0  0  0  0  0
   -1.6012   -0.2621    0.5802 N   0  0  0  0  0  0  0  0  0  0  0  0
   -0.5994    0.3606    1.1657 C   0  0  0  0  0  0  0  0  0  0  0  0
    0.5295   -0.3738    1.7416 C   0  0  0  0  0  0  0  0  0  0  0  0
    1.7746   -0.3450    0.9814 C   0  0  0  0  0  0  0  0  0  0  0  0
    2.6155    0.7509    1.0990 C   0  0  0  0  0  0  0  0  0  0  0  0
    3.7997    0.7751    0.3907 C   0  0  0  0  0  0  0  0  0  0  0  0
    4.1938   -0.2533   -0.4414 C   0  0  0  0  0  0  0  0  0  0  0  0
    5.4961   -0.1843   -1.1963 C   0  0  0  0  0  0  0  0  0  0  0  0
    3.3533   -1.3432   -0.5557 C   0  0  0  0  0  0  0  0  0  0  0  0
    2.1479   -1.3752    0.1611 C   0  0  0  0  0  0  0  0  0  0  0  0
   -0.6489    1.7305    1.2041 N   0  0  0  0  0  0  0  0  0  0  0  0
   -1.6693    2.4259    0.6709 C   0  0  0  0  0  0  0  0  0  0  0  0
   -1.6575    3.8196    0.7442 C   0  0  0  0  0  0  0  0  0  0  0  0
   -2.6953    4.5087    0.2010 C   0  0  0  0  0  0  0  0  0  0  0  0
   -3.7447    3.8520   -0.4132 C   0  0  0  0  0  0  0  0  0  0  0  0
   -3.7562    2.4818   -0.4851 C   0  0  0  0  0  0  0  0  0  0  0  0
   -2.7166    1.7753    0.0583 C   0  0  0  0  0  0  0  0  0  0  0  0
   -2.6592    0.4048    0.0247 C   0  0  0  0  0  0  0  0  0  0  0  0
   -3.6137   -0.1877   -0.5331 O   0  0  0  0  0  0  0  0  0  0  0  0
   -2.0384   -1.5877   -2.5038 H   0  0  0  0  0  0  0  0  0  0  0  0
   -0.4850   -2.5606   -2.5191 H   0  0  0  0  0  0  0  0  0  0  0  0
   -0.5456   -0.9318   -1.7508 H   0  0  0  0  0  0  0  0  0  0  0  0
   -1.4625   -4.5566   -1.2640 H   0  0  0  0  0  0  0  0  0  0  0  0
   -2.0351   -5.3310    1.1243 H   0  0  0  0  0  0  0  0  0  0  0  0
    0.2394   -1.4157    1.9939 H   0  0  0  0  0  0  0  0  0  0  0  0
    0.7557    0.0856    2.7542 H   0  0  0  0  0  0  0  0  0  0  0  0
    2.3711    1.5977    1.7353 H   0  0  0  0  0  0  0  0  0  0  0  0
    4.4766    1.6204    0.4642 H   0  0  0  0  0  0  0  0  0  0  0  0
    6.2803   -0.4449   -0.4495 H   0  0  0  0  0  0  0  0  0  0  0  0
    5.6017    0.9018   -1.4793 H   0  0  0  0  0  0  0  0  0  0  0  0
    5.4802   -0.8411   -2.0722 H   0  0  0  0  0  0  0  0  0  0  0  0
    3.6470   -2.1576   -1.2035 H   0  0  0  0  0  0  0  0  0  0  0  0
    1.5699   -2.2568    0.0123 H   0  0  0  0  0  0  0  0  0  0  0  0
   -0.8266    4.3052    1.2288 H   0  0  0  0  0  0  0  0  0  0  0  0
   -2.6763    5.5980    0.2637 H   0  0  0  0  0  0  0  0  0  0  0  0
   -4.5660    4.4265   -0.8417 H   0  0  0  0  0  0  0  0  0  0  0  0
   -4.5694    1.9568   -0.9618 H   0  0  0  0  0  0  0  0  0  0  0  0
  1  2  1  0
  2  3  1  0
  3  4  2  0
  4  5  1  0
  5  6  1  0
  6  7  1  0
  7  8  1  0
  8  9  1  0
  9 10  1  0
 10 11  2  0
 11 12  1  0
 12 13  2  0
 13 14  1  0
 13 15  1  0
 15 16  2  0
  8 17  2  0
 17 18  1  0
 18 19  2  0
 19 20  1  0
 20 21  2  0
 21 22  1  0
 22 23  2  0
 23 24  1  0
 24 25  2  0
  6  2  2  0
 24  7  1  0
 16 10  1  0
 23 18  1  0
  1 26  1  0
  1 27  1  0
  1 28  1  0
  3 29  1  0
  4 30  1  0
  9 31  1  0
  9 32  1  0
 11 33  1  0
 12 34  1  0
 14 35  1  0
 14 36  1  0
 14 37  1  0
 15 38  1  0
 16 39  1  0
 19 40  1  0
 20 41  1  0
 21 42  1  0
 22 43  1  0
M  END
$$$$
[H]c1nc(C(=O)N([H])c2c([H])c([H])c(C([H])([H])C([H])([H])C([H])([H])C([H])([H])C3(C([H])([H])c4c([H])c([H])c([H])c([H])c4[H])C(=O)N([H])C(=O)N3[H])c([H])c2[H])c([H])c(C(=O)C([H])([H])[H])c1[H]
     RDKit          3D

 64 67  0  0  0  0  0  0  0  0999 V2000
   10.2334    1.0917    0.2913 C   0  0  0  0  0  0  0  0  0  0  0  0
    8.8260    0.9828   -0.1513 C   0  0  0  0  0  0  0  0  0  0  0  0
    8.4444    1.6960   -1.1037 O   0  0  0  0  0  0  0  0  0  0  0  0
    7.9376    0.0704    0.5149 C   0  0  0  0  0  0  0  0  0  0  0  0
    8.3220   -0.7331    1.5694 C   0  0  0  0  0  0  0  0  0  0  0  0
    7.4608   -1.5963    2.1914 C   0  0  0  0  0  0  0  0  0  0  0  0
    6.2074   -1.6591    1.7592 N   0  0  0  0  0  0  0  0  0  0  0  0
    5.7655   -0.9107    0.7434 C   0  0  0  0  0  0  0  0  0  0  0  0
    6.6000   -0.0458    0.1088 C   0  0  0  0  0  0  0  0  0  0  0  0
    4.3602   -1.0483    0.3344 C   0  0  0  0  0  0  0  0  0  0  0  0
    3.6858   -1.8777    0.9941 O   0  0  0  0  0  0  0  0  0  0  0  0
    3.7988   -0.3153   -0.7126 N   0  0  0  0  0  0  0  0  0  0  0  0
    2.4766   -0.3887   -1.1480 C   0  0  0  0  0  0  0  0  0  0  0  0
    1.4130   -0.8900   -0.4468 C   0  0  0  0  0  0  0  0  0  0  0  0
    0.1055   -0.9516   -0.9696 C   0  0  0  0  0  0  0  0  0  0  0  0
   -0.1419   -0.4924   -2.2416 C   0  0  0  0  0  0  0  0  0  0  0  0
   -1.4854   -0.5427   -2.8006 C   0  0  0  0  0  0  0  0  0  0  0  0
   -2.3651    0.6240   -2.6279 C   0  0  0  0  0  0  0  0  0  0  0  0
   -2.7146    1.0300   -1.2426 C   0  0  0  0  0  0  0  0  0  0  0  0
   -3.4583    0.0018   -0.4477 C   0  0  0  0  0  0  0  0  0  0  0  0
   -3.7320    0.5719    0.9268 C   0  0  0  0  0  0  0  0  0  0  0  0
   -4.4749   -0.3769    1.8223 C   0  0  0  0  0  0  0  0  0  0  0  0
   -5.7821   -0.7358    1.2441 C   0  0  0  0  0  0  0  0  0  0  0  0
   -5.9690   -1.8364    0.4099 C   0  0  0  0  0  0  0  0  0  0  0  0
   -7.2131   -2.1222   -0.1005 C   0  0  0  0  0  0  0  0  0  0  0  0
   -8.2815   -1.3165    0.2141 C   0  0  0  0  0  0  0  0  0  0  0  0
   -8.1182   -0.2205    1.0393 C   0  0  0  0  0  0  0  0  0  0  0  0
   -6.8775    0.0756    1.5561 C   0  0  0  0  0  0  0  0  0  0  0  0
   -4.4191    1.8505    0.8433 N   0  0  0  0  0  0  0  0  0  0  0  0
   -3.5780    2.9039    1.2988 C   0  0  0  0  0  0  0  0  0  0  0  0
   -3.8061    4.1521    1.2897 O   0  0  0  0  0  0  0  0  0  0  0  0
   -2.3763    2.3460    1.7957 N   0  0  0  0  0  0  0  0  0  0  0  0
   -2.4846    0.9513    1.6433 C   0  0  0  0  0  0  0  0  0  0  0  0
   -1.6455    0.0919    2.0516 O   0  0  0  0  0  0  0  0  0  0  0  0
    0.9187    0.0228   -2.9772 C   0  0  0  0  0  0  0  0  0  0  0  0
    2.1810    0.0730   -2.4508 C   0  0  0  0  0  0  0  0  0  0  0  0
   10.3311    1.0644    1.4106 H   0  0  0  0  0  0  0  0  0  0  0  0
   10.6896    2.0488   -0.0567 H   0  0  0  0  0  0  0  0  0  0  0  0
   10.8198    0.2372   -0.1145 H   0  0  0  0  0  0  0  0  0  0  0  0
    9.3580   -0.6602    1.9031 H   0  0  0  0  0  0  0  0  0  0  0  0
    7.7896   -2.2091    3.0098 H   0  0  0  0  0  0  0  0  0  0  0  0
    6.3212    0.5900   -0.7152 H   0  0  0  0  0  0  0  0  0  0  0  0
    4.4407    0.3581   -1.2135 H   0  0  0  0  0  0  0  0  0  0  0  0
    1.5597   -1.2466    0.5620 H   0  0  0  0  0  0  0  0  0  0  0  0
   -0.6345   -1.3656   -0.3283 H   0  0  0  0  0  0  0  0  0  0  0  0
   -2.0342   -1.4392   -2.3867 H   0  0  0  0  0  0  0  0  0  0  0  0
   -1.3851   -0.7814   -3.8916 H   0  0  0  0  0  0  0  0  0  0  0  0
   -3.3481    0.3496   -3.1252 H   0  0  0  0  0  0  0  0  0  0  0  0
   -2.0477    1.5259   -3.2318 H   0  0  0  0  0  0  0  0  0  0  0  0
   -3.2877    1.9765   -1.1903 H   0  0  0  0  0  0  0  0  0  0  0  0
   -1.7502    1.2438   -0.6978 H   0  0  0  0  0  0  0  0  0  0  0  0
   -2.9733   -0.9627   -0.3291 H   0  0  0  0  0  0  0  0  0  0  0  0
   -4.4775   -0.0975   -0.9323 H   0  0  0  0  0  0  0  0  0  0  0  0
   -3.8325   -1.2832    1.9787 H   0  0  0  0  0  0  0  0  0  0  0  0
   -4.6382    0.0331    2.8353 H   0  0  0  0  0  0  0  0  0  0  0  0
   -5.0929   -2.4315    0.1988 H   0  0  0  0  0  0  0  0  0  0  0  0
   -7.3523   -2.9702   -0.7420 H   0  0  0  0  0  0  0  0  0  0  0  0
   -9.2656   -1.5170   -0.1712 H   0  0  0  0  0  0  0  0  0  0  0  0
   -8.9881    0.3771    1.2536 H   0  0  0  0  0  0  0  0  0  0  0  0
   -6.7635    0.9458    2.2074 H   0  0  0  0  0  0  0  0  0  0  0  0
   -5.3991    2.0448    0.5044 H   0  0  0  0  0  0  0  0  0  0  0  0
   -1.5592    2.8447    2.1990 H   0  0  0  0  0  0  0  0  0  0  0  0
    0.6817    0.3711   -3.9673 H   0  0  0  0  0  0  0  0  0  0  0  0
    3.0251    0.4777   -3.0260 H   0  0  0  0  0  0  0  0  0  0  0  0
  1  2  1  0
  2  3  2  0
  2  4  1  0
  4  5  2  0
  5  6  1  0
  6  7  2  0
  7  8  1  0
  8  9  2  0
  8 10  1  0
 10 11  2  0
 10 12  1  0
 12 13  1  0
 13 14  2  0
 14 15  1  0
 15 16  2  0
 16 17  1  0
 17 18  1  0
 18 19  1  0
 19 20  1  0
 20 21  1  0
 21 22  1  0
 22 23  1  0
 23 24  2  0
 24 25  1  0
 25 26  2  0
 26 27  1  0
 27 28  2  0
 21 29  1  0
 29 30  1  0
 30 31  2  0
 30 32  1  0
 32 33  1  0
 33 34  2  0
 16 35  1  0
 35 36  2  0
  9  4  1  0
 36 13  1  0
 33 21  1  0
 28 23  1  0
  1 37  1  0
  1 38  1  0
  1 39  1  0
  5 40  1  0
  6 41  1  0
  9 42  1  0
 12 43  1  0
 14 44  1  0
 15 45  1  0
 17 46  1  0
 17 47  1  0
 18 48  1  0
 18 49  1  0
 19 50  1  0
 19 51  1  0
 20 52  1  0
 20 53  1  0
 22 54  1  0
 22 55  1  0
 24 56  1  0
 25 57  1  0
 26 58  1  0
 27 59  1  0
 28 60  1  0
 29 61  1  0
 32 62  1  0
 35 63  1  0
 36 64  1  0
M  END
$$$$
[H]c1c([H])c(C2=C(C([H])([H])N3C([H])([H])C([H])([H])N(c4c([H])c([H])c(C(=O)N([H])S(=O)(=O)c5c([H])c([H])c(N([H])C([H])([H])C6([H])C([H])([H])C([H])([H])OC([H])([H])C6([H])[H])c([N+](=O)[O-])c5[H])c(Oc5c(F)c([H])c6c(c5[H])c([H])c([H])n6[H])c4[H])C([H])([H])C3([H])[H])C([H])([H])C([H])([H])C(C([H])([H])[H])(C([H])([H])[H])C2([H])[H])c([H])c([H])c1Cl
     RDKit          3D

112119  0  0  0  0  0  0  0  0999 V2000
   -9.8861    0.1663    0.5645 C   0  0  0  0  0  0  0  0  0  0  0  0
   -9.9751    0.6989   -0.8255 C   0  0  0  0  0  0  0  0  0  0  0  0
  -11.4294    0.6459   -1.2859 C   0  0  0  0  0  0  0  0  0  0  0  0
   -9.1808   -0.1886   -1.7585 C   0  0  0  0  0  0  0  0  0  0  0  0
   -7.7112   -0.1637   -1.3971 C   0  0  0  0  0  0  0  0  0  0  0  0
   -7.2359    1.2082   -1.0268 C   0  0  0  0  0  0  0  0  0  0  0  0
   -5.7712    1.3158   -0.8097 C   0  0  0  0  0  0  0  0  0  0  0  0
   -5.1694    0.4553    0.0894 N   0  0  0  0  0  0  0  0  0  0  0  0
   -4.9508   -0.8988   -0.0544 C   0  0  0  0  0  0  0  0  0  0  0  0
   -3.4696   -1.2621   -0.1035 C   0  0  0  0  0  0  0  0  0  0  0  0
   -2.7864   -0.6188    0.9698 N   0  0  0  0  0  0  0  0  0  0  0  0
   -3.3761    0.3874    1.7847 C   0  0  0  0  0  0  0  0  0  0  0  0
   -4.6655    0.9729    1.3165 C   0  0  0  0  0  0  0  0  0  0  0  0
   -1.4236   -1.0429    1.1985 C   0  0  0  0  0  0  0  0  0  0  0  0
   -0.7236   -0.7304    2.3344 C   0  0  0  0  0  0  0  0  0  0  0  0
    0.5682   -1.1313    2.5364 C   0  0  0  0  0  0  0  0  0  0  0  0
    1.2484   -1.8981    1.5640 C   0  0  0  0  0  0  0  0  0  0  0  0
    2.6679   -2.1048    1.7224 C   0  0  0  0  0  0  0  0  0  0  0  0
    3.1080   -1.8885    2.9330 O   0  0  0  0  0  0  0  0  0  0  0  0
    3.5896   -2.5060    0.7839 N   0  0  0  0  0  0  0  0  0  0  0  0
    5.2569   -2.7505    1.3070 S   0  0  0  0  0  0  0  0  0  0  0  0
    5.3439   -2.7022    2.7803 O   0  0  0  0  0  0  0  0  0  0  0  0
    5.6744   -4.0908    0.7444 O   0  0  0  0  0  0  0  0  0  0  0  0
    6.2092   -1.5166    0.5345 C   0  0  0  0  0  0  0  0  0  0  0  0
    6.4409   -0.3106    1.1708 C   0  0  0  0  0  0  0  0  0  0  0  0
    7.2196    0.6523    0.5791 C   0  0  0  0  0  0  0  0  0  0  0  0
    7.8148    0.4701   -0.6849 C   0  0  0  0  0  0  0  0  0  0  0  0
    8.6482    1.5081   -1.1689 N   0  0  0  0  0  0  0  0  0  0  0  0
    8.8088    2.7488   -0.4392 C   0  0  0  0  0  0  0  0  0  0  0  0
    9.8639    3.6479   -1.1008 C   0  0  0  0  0  0  0  0  0  0  0  0
   11.1834    2.9110   -1.1194 C   0  0  0  0  0  0  0  0  0  0  0  0
   12.3596    3.7312   -0.7127 C   0  0  0  0  0  0  0  0  0  0  0  0
   12.1915    4.4940    0.4230 O   0  0  0  0  0  0  0  0  0  0  0  0
   10.9124    4.4711    0.9457 C   0  0  0  0  0  0  0  0  0  0  0  0
    9.9722    4.8558   -0.1684 C   0  0  0  0  0  0  0  0  0  0  0  0
    7.5876   -0.7213   -1.3245 C   0  0  0  0  0  0  0  0  0  0  0  0
    6.7886   -1.6823   -0.6908 C   0  0  0  0  0  0  0  0  0  0  0  0
    8.1159   -1.0339   -2.5787 N   0  0  0  0  0  0  0  0  0  0  0  0
    8.3808   -0.1080   -3.5211 O   0  0  0  0  0  0  0  0  0  0  0  0
    8.3637   -2.2405   -2.8487 O   0  0  0  0  0  0  0  0  0  0  0  0
    0.5620   -2.2206    0.4364 C   0  0  0  0  0  0  0  0  0  0  0  0
    1.0975   -2.9952   -0.6093 O   0  0  0  0  0  0  0  0  0  0  0  0
    1.2721   -4.3834   -0.3847 C   0  0  0  0  0  0  0  0  0  0  0  0
    0.9190   -5.0201    0.7733 C   0  0  0  0  0  0  0  0  0  0  0  0
    1.1093   -6.3747    0.9477 C   0  0  0  0  0  0  0  0  0  0  0  0
    0.8487   -7.2341    1.9939 C   0  0  0  0  0  0  0  0  0  0  0  0
    1.2491   -8.4886    1.6172 C   0  0  0  0  0  0  0  0  0  0  0  0
    1.7344   -8.3965    0.3882 N   0  0  0  0  0  0  0  0  0  0  0  0
    1.6744   -7.1494   -0.0624 C   0  0  0  0  0  0  0  0  0  0  0  0
    2.0307   -6.5148   -1.2279 C   0  0  0  0  0  0  0  0  0  0  0  0
    1.8297   -5.1451   -1.3831 C   0  0  0  0  0  0  0  0  0  0  0  0
    2.1830   -4.5162   -2.5361 F   0  0  0  0  0  0  0  0  0  0  0  0
   -0.7460   -1.7909    0.2696 C   0  0  0  0  0  0  0  0  0  0  0  0
   -8.0222    2.2368   -0.8475 C   0  0  0  0  0  0  0  0  0  0  0  0
   -9.4977    2.0826   -1.0029 C   0  0  0  0  0  0  0  0  0  0  0  0
   -7.6029    3.6152   -0.5747 C   0  0  0  0  0  0  0  0  0  0  0  0
   -8.2232    4.2448    0.4834 C   0  0  0  0  0  0  0  0  0  0  0  0
   -7.9840    5.5586    0.8220 C   0  0  0  0  0  0  0  0  0  0  0  0
   -7.0629    6.2230    0.0178 C   0  0  0  0  0  0  0  0  0  0  0  0
   -6.7256    7.8979    0.4083 Cl  0  0  0  0  0  0  0  0  0  0  0  0
   -6.4302    5.6247   -1.0404 C   0  0  0  0  0  0  0  0  0  0  0  0
   -6.7098    4.3125   -1.3294 C   0  0  0  0  0  0  0  0  0  0  0  0
   -9.3712   -0.8308    0.6123 H   0  0  0  0  0  0  0  0  0  0  0  0
   -9.4062    0.8681    1.2794 H   0  0  0  0  0  0  0  0  0  0  0  0
  -10.9068   -0.0219    0.9614 H   0  0  0  0  0  0  0  0  0  0  0  0
  -11.9478   -0.2499   -0.9468 H   0  0  0  0  0  0  0  0  0  0  0  0
  -11.9330    1.5531   -0.8943 H   0  0  0  0  0  0  0  0  0  0  0  0
  -11.4628    0.7339   -2.4085 H   0  0  0  0  0  0  0  0  0  0  0  0
   -9.2834    0.2247   -2.7794 H   0  0  0  0  0  0  0  0  0  0  0  0
   -9.5558   -1.2278   -1.7864 H   0  0  0  0  0  0  0  0  0  0  0  0
   -7.0803   -0.5140   -2.2153 H   0  0  0  0  0  0  0  0  0  0  0  0
   -7.6036   -0.7794   -0.4980 H   0  0  0  0  0  0  0  0  0  0  0  0
   -5.5447    2.3695   -0.4162 H   0  0  0  0  0  0  0  0  0  0  0  0
   -5.2962    1.3482   -1.8325 H   0  0  0  0  0  0  0  0  0  0  0  0
   -5.3255   -1.4180    0.8842 H   0  0  0  0  0  0  0  0  0  0  0  0
   -5.4420   -1.4565   -0.8745 H   0  0  0  0  0  0  0  0  0  0  0  0
   -3.3950   -2.3834    0.0184 H   0  0  0  0  0  0  0  0  0  0  0  0
   -3.0507   -1.0698   -1.1139 H   0  0  0  0  0  0  0  0  0  0  0  0
   -2.6655    1.2518    1.9620 H   0  0  0  0  0  0  0  0  0  0  0  0
   -3.4612   -0.0629    2.8223 H   0  0  0  0  0  0  0  0  0  0  0  0
   -5.4406    0.6943    2.1009 H   0  0  0  0  0  0  0  0  0  0  0  0
   -4.6697    2.0927    1.3525 H   0  0  0  0  0  0  0  0  0  0  0  0
   -1.2286   -0.1391    3.0964 H   0  0  0  0  0  0  0  0  0  0  0  0
    1.1215   -0.8880    3.4243 H   0  0  0  0  0  0  0  0  0  0  0  0
    3.4741   -2.6559   -0.2278 H   0  0  0  0  0  0  0  0  0  0  0  0
    5.9910   -0.1392    2.1563 H   0  0  0  0  0  0  0  0  0  0  0  0
    7.3909    1.5945    1.0898 H   0  0  0  0  0  0  0  0  0  0  0  0
    9.1742    1.4216   -2.0405 H   0  0  0  0  0  0  0  0  0  0  0  0
    9.1305    2.4781    0.5851 H   0  0  0  0  0  0  0  0  0  0  0  0
    7.8875    3.3278   -0.3724 H   0  0  0  0  0  0  0  0  0  0  0  0
    9.5283    3.9316   -2.1093 H   0  0  0  0  0  0  0  0  0  0  0  0
   11.1050    2.0617   -0.4120 H   0  0  0  0  0  0  0  0  0  0  0  0
   11.3533    2.5764   -2.1716 H   0  0  0  0  0  0  0  0  0  0  0  0
   13.1825    2.9934   -0.4672 H   0  0  0  0  0  0  0  0  0  0  0  0
   12.8005    4.3365   -1.5505 H   0  0  0  0  0  0  0  0  0  0  0  0
   10.6727    3.4921    1.4102 H   0  0  0  0  0  0  0  0  0  0  0  0
   10.8867    5.2222    1.7800 H   0  0  0  0  0  0  0  0  0  0  0  0
   10.3894    5.6820   -0.7427 H   0  0  0  0  0  0  0  0  0  0  0  0
    8.9739    5.0977    0.2801 H   0  0  0  0  0  0  0  0  0  0  0  0
    6.6135   -2.6242   -1.2020 H   0  0  0  0  0  0  0  0  0  0  0  0
    0.4819   -4.4551    1.5773 H   0  0  0  0  0  0  0  0  0  0  0  0
    0.4056   -6.9805    2.9525 H   0  0  0  0  0  0  0  0  0  0  0  0
    1.1979   -9.4030    2.1798 H   0  0  0  0  0  0  0  0  0  0  0  0
    2.1343   -9.1775   -0.2127 H   0  0  0  0  0  0  0  0  0  0  0  0
    2.4763   -7.0866   -2.0447 H   0  0  0  0  0  0  0  0  0  0  0  0
   -1.2771   -2.0547   -0.6475 H   0  0  0  0  0  0  0  0  0  0  0  0
  -10.0476    2.8293   -0.3874 H   0  0  0  0  0  0  0  0  0  0  0  0
   -9.7077    2.3754   -2.0697 H   0  0  0  0  0  0  0  0  0  0  0  0
   -8.9505    3.6985    1.1041 H   0  0  0  0  0  0  0  0  0  0  0  0
   -8.4742    6.0647    1.6535 H   0  0  0  0  0  0  0  0  0  0  0  0
   -5.7059    6.1628   -1.6648 H   0  0  0  0  0  0  0  0  0  0  0  0
   -6.2069    3.8186   -2.1874 H   0  0  0  0  0  0  0  0  0  0  0  0
  1  2  1  0
  2  3  1  0
  2  4  1  0
  4  5  1  0
  5  6  1  0
  6  7  1  0
  7  8  1  0
  8  9  1  0
  9 10  1  0
 10 11  1  0
 11 12  1  0
 12 13  1  0
 11 14  1  0
 14 15  2  0
 15 16  1  0
 16 17  2  0
 17 18  1  0
 18 19  2  0
 18 20  1  0
 20 21  1  0
 21 22  2  0
 21 23  2  0
 21 24  1  0
 24 25  2  0
 25 26  1  0
 26 27  2  0
 27 28  1  0
 28 29  1  0
 29 30  1  0
 30 31  1  0
 31 32  1  0
 32 33  1  0
 33 34  1  0
 34 35  1  0
 27 36  1  0
 36 37  2  0
 36 38  1  0
 38 39  1  0
 38 40  2  0
 17 41  1  0
 41 42  1  0
 42 43  1  0
 43 44  2  0
 44 45  1  0
 45 46  1  0
 46 47  2  0
 47 48  1  0
 48 49  1  0
 49 50  1  0
 50 51  2  0
 51 52  1  0
 41 53  2  0
  6 54  2  0
 54 55  1  0
 54 56  1  0
 56 57  2  0
 57 58  1  0
 58 59  2  0
 59 60  1  0
 59 61  1  0
 61 62  2  0
 55  2  1  0
 62 56  1  0
 13  8  1  0
 53 14  1  0
 37 24  1  0
 51 43  1  0
 35 30  1  0
 49 45  2  0
  1 63  1  0
  1 64  1  0
  1 65  1  0
  3 66  1  0
  3 67  1  0
  3 68  1  0
  4 69  1  0
  4 70  1  0
  5 71  1  0
  5 72  1  0
  7 73  1  0
  7 74  1  0
  9 75  1  0
  9 76  1  0
 10 77  1  0
 10 78  1  0
 12 79  1  0
 12 80  1  0
 13 81  1  0
 13 82  1  0
 15 83  1  0
 16 84  1  0
 20 85  1  0
 25 86  1  0
 26 87  1  0
 28 88  1  0
 29 89  1  0
 29 90  1  0
 30 91  1  0
 31 92  1  0
 31 93  1  0
 32 94  1  0
 32 95  1  0
 34 96  1  0
 34 97  1  0
 35 98  1  0
 35 99  1  0
 37100  1  0
 44101  1  0
 46102  1  0
 47103  1  0
 48104  1  0
 50105  1  0
 53106  1  0
 55107  1  0
 55108  1  0
 57109  1  0
 58110  1  0
 61111  1  0
 62112  1  0
M  CHG  2  38   1  39  -1
M  END
$$$$
[H]c1nc(C([H])([H])C([H])([H])[C@]([H])(N2C([H])([H])[C@]([H])(F)C([H])([H])[C@@]2([H])C(=O)N([H])C(C([H])([H])[H])(C([H])([H])[H])C([H])([H])[H])C([H])([H])[H])nc2c1c([H])c([H])n2[H]
     RDKit          3D

 54 56  0  0  0  0  0  0  0  0999 V2000
    0.1945   -2.3289    2.0549 C   0  0  0  0  0  0  0  0  0  0  0  0
    0.1942   -1.1337    1.1343 C   0  0  2  0  0  0  0  0  0  0  0  0
    1.4373   -0.9361    0.3445 C   0  0  0  0  0  0  0  0  0  0  0  0
    2.7104   -0.7668    1.0892 C   0  0  0  0  0  0  0  0  0  0  0  0
    3.8731   -0.6060    0.1216 C   0  0  0  0  0  0  0  0  0  0  0  0
    4.5457   -1.6832   -0.3166 N   0  0  0  0  0  0  0  0  0  0  0  0
    5.5845   -1.5521   -1.1808 C   0  0  0  0  0  0  0  0  0  0  0  0
    5.9471   -0.3008   -1.6080 C   0  0  0  0  0  0  0  0  0  0  0  0
    6.9323    0.1807   -2.4655 C   0  0  0  0  0  0  0  0  0  0  0  0
    6.8073    1.5564   -2.5066 C   0  0  0  0  0  0  0  0  0  0  0  0
    5.7919    1.9101   -1.7116 N   0  0  0  0  0  0  0  0  0  0  0  0
    5.2642    0.7888   -1.1624 C   0  0  0  0  0  0  0  0  0  0  0  0
    4.2403    0.6047   -0.3049 N   0  0  0  0  0  0  0  0  0  0  0  0
   -0.4193    0.0342    1.5759 N   0  0  0  0  0  0  0  0  0  0  0  0
   -0.0047    0.6986    2.7360 C   0  0  0  0  0  0  0  0  0  0  0  0
   -0.8421    1.9990    2.6348 C   0  0  2  0  0  0  0  0  0  0  0  0
   -0.8561    2.6943    3.7993 F   0  0  0  0  0  0  0  0  0  0  0  0
   -2.1830    1.3474    2.3012 C   0  0  0  0  0  0  0  0  0  0  0  0
   -1.8329    0.0872    1.5428 C   0  0  1  0  0  0  0  0  0  0  0  0
   -2.4237    0.1281    0.1729 C   0  0  0  0  0  0  0  0  0  0  0  0
   -1.7543    0.2107   -0.8745 O   0  0  0  0  0  0  0  0  0  0  0  0
   -3.8390    0.0685    0.0627 N   0  0  0  0  0  0  0  0  0  0  0  0
   -4.5115    0.1013   -1.2221 C   0  0  0  0  0  0  0  0  0  0  0  0
   -4.2151    1.3673   -1.9777 C   0  0  0  0  0  0  0  0  0  0  0  0
   -4.0749   -1.0640   -2.0921 C   0  0  0  0  0  0  0  0  0  0  0  0
   -6.0019    0.0012   -1.0138 C   0  0  0  0  0  0  0  0  0  0  0  0
    0.4972   -3.2032    1.4439 H   0  0  0  0  0  0  0  0  0  0  0  0
    0.7964   -2.1981    2.9575 H   0  0  0  0  0  0  0  0  0  0  0  0
   -0.8699   -2.5324    2.3406 H   0  0  0  0  0  0  0  0  0  0  0  0
   -0.5731   -1.5261    0.3091 H   0  0  0  0  0  0  0  0  0  0  0  0
    1.3544   -0.0224   -0.3288 H   0  0  0  0  0  0  0  0  0  0  0  0
    1.5601   -1.7634   -0.4324 H   0  0  0  0  0  0  0  0  0  0  0  0
    2.9209   -1.7292    1.6199 H   0  0  0  0  0  0  0  0  0  0  0  0
    2.7689    0.1033    1.7330 H   0  0  0  0  0  0  0  0  0  0  0  0
    6.1308   -2.4050   -1.5383 H   0  0  0  0  0  0  0  0  0  0  0  0
    7.6429   -0.4331   -2.9833 H   0  0  0  0  0  0  0  0  0  0  0  0
    7.4228    2.2627   -3.0846 H   0  0  0  0  0  0  0  0  0  0  0  0
    5.4389    2.8828   -1.5242 H   0  0  0  0  0  0  0  0  0  0  0  0
    1.0388    0.9355    2.8912 H   0  0  0  0  0  0  0  0  0  0  0  0
   -0.3662    0.2135    3.6917 H   0  0  0  0  0  0  0  0  0  0  0  0
   -0.4480    2.5468    1.7634 H   0  0  0  0  0  0  0  0  0  0  0  0
   -2.7720    1.1588    3.2182 H   0  0  0  0  0  0  0  0  0  0  0  0
   -2.7007    2.0249    1.5962 H   0  0  0  0  0  0  0  0  0  0  0  0
   -2.3134   -0.7536    2.1240 H   0  0  0  0  0  0  0  0  0  0  0  0
   -4.4123   -0.0004    0.9149 H   0  0  0  0  0  0  0  0  0  0  0  0
   -4.0720    2.2362   -1.2946 H   0  0  0  0  0  0  0  0  0  0  0  0
   -3.3681    1.2529   -2.6900 H   0  0  0  0  0  0  0  0  0  0  0  0
   -5.1021    1.6120   -2.5939 H   0  0  0  0  0  0  0  0  0  0  0  0
   -3.6985   -1.8973   -1.4951 H   0  0  0  0  0  0  0  0  0  0  0  0
   -3.3166   -0.7045   -2.8447 H   0  0  0  0  0  0  0  0  0  0  0  0
   -4.9511   -1.3958   -2.6927 H   0  0  0  0  0  0  0  0  0  0  0  0
   -6.3891    0.6805   -0.2421 H   0  0  0  0  0  0  0  0  0  0  0  0
   -6.5025    0.3043   -1.9767 H   0  0  0  0  0  0  0  0  0  0  0  0
   -6.2807   -1.0566   -0.8545 H   0  0  0  0  0  0  0  0  0  0  0  0
  1  2  1  0
  2  3  1  0
  3  4  1  0
  4  5  1  0
  5  6  2  0
  6  7  1  0
  7  8  2  0
  8  9  1  0
  9 10  2  0
 10 11  1  0
 11 12  1  0
 12 13  2  0
  2 14  1  0
 14 15  1  0
 15 16  1  0
 16 17  1  0
 16 18  1  0
 18 19  1  0
 19 20  1  0
 20 21  2  0
 20 22  1  0
 22 23  1  0
 23 24  1  0
 23 25  1  0
 23 26  1  0
 13  5  1  0
 19 14  1  0
 12  8  1  0
  1 27  1  0
  1 28  1  0
  1 29  1  0
  2 30  1  6
  3 31  1  0
  3 32  1  0
  4 33  1  0
  4 34  1  0
  7 35  1  0
  9 36  1  0
 10 37  1  0
 11 38  1  0
 15 39  1  0
 15 40  1  0
 16 41  1  6
 18 42  1  0
 18 43  1  0
 19 44  1  1
 22 45  1  0
 24 46  1  0
 24 47  1  0
 24 48  1  0
 25 49  1  0
 25 50  1  0
 25 51  1  0
 26 52  1  0
 26 53  1  0
 26 54  1  0
M  END
$$$$
[H]c1c([H])c(N([H])C(=O)c2c([H])c(C([H])([H])[H])c([H])c(C([H])([H])[H])c2[H])c([H])c([H])c1C(=O)N([H])C([H])([H])C1([H])C([H])([H])C([H])([H])N(C(=O)c2c([H])c(OC([H])([H])[H])c(OC([H])([H])[H])c(OC([H])([H])[H])c2[H])C([H])([H])C1([H])[H]
     RDKit          3D

 78 81  0  0  0  0  0  0  0  0999 V2000
    5.3532    3.3546    1.6017 C   0  0  0  0  0  0  0  0  0  0  0  0
    6.5739    3.3802    0.8906 O   0  0  0  0  0  0  0  0  0  0  0  0
    7.0008    2.1954    0.3010 C   0  0  0  0  0  0  0  0  0  0  0  0
    6.2167    1.0338    0.4295 C   0  0  0  0  0  0  0  0  0  0  0  0
    6.6391   -0.1433   -0.1565 C   0  0  0  0  0  0  0  0  0  0  0  0
    7.8600   -0.0927   -0.8585 C   0  0  0  0  0  0  0  0  0  0  0  0
    8.6229    1.0329   -0.9852 C   0  0  0  0  0  0  0  0  0  0  0  0
    9.8258    1.0645   -1.6859 O   0  0  0  0  0  0  0  0  0  0  0  0
   10.2897   -0.1096   -2.3128 C   0  0  0  0  0  0  0  0  0  0  0  0
    8.1865    2.1987   -0.3953 C   0  0  0  0  0  0  0  0  0  0  0  0
    8.9256    3.3609   -0.4987 O   0  0  0  0  0  0  0  0  0  0  0  0
    8.6593    4.1883   -1.6219 C   0  0  0  0  0  0  0  0  0  0  0  0
    5.9226   -1.3612   -0.1512 C   0  0  0  0  0  0  0  0  0  0  0  0
    6.5802   -2.4138   -0.5375 O   0  0  0  0  0  0  0  0  0  0  0  0
    4.5919   -1.6367    0.2040 N   0  0  0  0  0  0  0  0  0  0  0  0
    3.5782   -0.7180    0.6144 C   0  0  0  0  0  0  0  0  0  0  0  0
    2.2072   -1.3453    0.4322 C   0  0  0  0  0  0  0  0  0  0  0  0
    1.9910   -2.5527    1.3288 C   0  0  0  0  0  0  0  0  0  0  0  0
    0.9257   -3.4580    0.7924 C   0  0  0  0  0  0  0  0  0  0  0  0
   -0.3543   -2.8586    0.6407 N   0  0  0  0  0  0  0  0  0  0  0  0
   -1.1680   -2.3027    1.6351 C   0  0  0  0  0  0  0  0  0  0  0  0
   -0.7495   -2.3203    2.8380 O   0  0  0  0  0  0  0  0  0  0  0  0
   -2.4822   -1.7046    1.3350 C   0  0  0  0  0  0  0  0  0  0  0  0
   -2.6024   -0.8085    0.2891 C   0  0  0  0  0  0  0  0  0  0  0  0
   -3.8004   -0.2398   -0.0504 C   0  0  0  0  0  0  0  0  0  0  0  0
   -4.9867   -0.5400    0.6542 C   0  0  0  0  0  0  0  0  0  0  0  0
   -6.1902    0.0914    0.2549 N   0  0  0  0  0  0  0  0  0  0  0  0
   -7.5048   -0.3292    0.5248 C   0  0  0  0  0  0  0  0  0  0  0  0
   -7.7567   -1.3768    1.1841 O   0  0  0  0  0  0  0  0  0  0  0  0
   -8.6462    0.4671    0.0293 C   0  0  0  0  0  0  0  0  0  0  0  0
   -9.8551   -0.1839   -0.0994 C   0  0  0  0  0  0  0  0  0  0  0  0
  -10.9461    0.5193   -0.5595 C   0  0  0  0  0  0  0  0  0  0  0  0
  -12.2354   -0.2023   -0.7062 C   0  0  0  0  0  0  0  0  0  0  0  0
  -10.8395    1.8486   -0.8877 C   0  0  0  0  0  0  0  0  0  0  0  0
   -9.6431    2.5077   -0.7642 C   0  0  0  0  0  0  0  0  0  0  0  0
   -9.4888    3.9499   -1.1019 C   0  0  0  0  0  0  0  0  0  0  0  0
   -8.5416    1.7927   -0.2983 C   0  0  0  0  0  0  0  0  0  0  0  0
   -4.8514   -1.4264    1.6872 C   0  0  0  0  0  0  0  0  0  0  0  0
   -3.6223   -2.0068    2.0311 C   0  0  0  0  0  0  0  0  0  0  0  0
    3.3007   -3.3287    1.4248 C   0  0  0  0  0  0  0  0  0  0  0  0
    4.1348   -3.0628    0.1886 C   0  0  0  0  0  0  0  0  0  0  0  0
    4.4949    3.0321    0.9774 H   0  0  0  0  0  0  0  0  0  0  0  0
    5.1091    4.3195    2.0726 H   0  0  0  0  0  0  0  0  0  0  0  0
    5.4263    2.6150    2.4506 H   0  0  0  0  0  0  0  0  0  0  0  0
    5.3135    1.0938    1.0125 H   0  0  0  0  0  0  0  0  0  0  0  0
    8.2072   -1.0257   -1.3297 H   0  0  0  0  0  0  0  0  0  0  0  0
    9.4613   -0.6088   -2.8731 H   0  0  0  0  0  0  0  0  0  0  0  0
   10.7053   -0.8647   -1.6216 H   0  0  0  0  0  0  0  0  0  0  0  0
   11.1084    0.2004   -3.0198 H   0  0  0  0  0  0  0  0  0  0  0  0
    7.9477    5.0073   -1.3977 H   0  0  0  0  0  0  0  0  0  0  0  0
    8.1449    3.5960   -2.4344 H   0  0  0  0  0  0  0  0  0  0  0  0
    9.5906    4.5838   -2.0523 H   0  0  0  0  0  0  0  0  0  0  0  0
    3.7103   -0.4891    1.6860 H   0  0  0  0  0  0  0  0  0  0  0  0
    3.5593    0.2076   -0.0177 H   0  0  0  0  0  0  0  0  0  0  0  0
    2.1412   -1.6801   -0.6184 H   0  0  0  0  0  0  0  0  0  0  0  0
    1.4589   -0.5401    0.6099 H   0  0  0  0  0  0  0  0  0  0  0  0
    1.7311   -2.2051    2.3236 H   0  0  0  0  0  0  0  0  0  0  0  0
    1.2701   -3.9352   -0.1425 H   0  0  0  0  0  0  0  0  0  0  0  0
    0.8028   -4.2781    1.5582 H   0  0  0  0  0  0  0  0  0  0  0  0
   -0.7490   -2.8226   -0.3489 H   0  0  0  0  0  0  0  0  0  0  0  0
   -1.6756   -0.5820   -0.2494 H   0  0  0  0  0  0  0  0  0  0  0  0
   -3.8693    0.4510   -0.8692 H   0  0  0  0  0  0  0  0  0  0  0  0
   -6.0940    0.9947   -0.3190 H   0  0  0  0  0  0  0  0  0  0  0  0
   -9.9876   -1.2232    0.1464 H   0  0  0  0  0  0  0  0  0  0  0  0
  -12.3683   -0.8602    0.1672 H   0  0  0  0  0  0  0  0  0  0  0  0
  -13.0745    0.5335   -0.8125 H   0  0  0  0  0  0  0  0  0  0  0  0
  -12.1516   -0.8455   -1.6308 H   0  0  0  0  0  0  0  0  0  0  0  0
  -11.7065    2.3771   -1.2503 H   0  0  0  0  0  0  0  0  0  0  0  0
   -8.4116    4.1963   -1.2046 H   0  0  0  0  0  0  0  0  0  0  0  0
   -9.9925    4.1694   -2.0520 H   0  0  0  0  0  0  0  0  0  0  0  0
   -9.8816    4.6010   -0.2668 H   0  0  0  0  0  0  0  0  0  0  0  0
   -7.6047    2.3287   -0.2010 H   0  0  0  0  0  0  0  0  0  0  0  0
   -5.7350   -1.6866    2.2826 H   0  0  0  0  0  0  0  0  0  0  0  0
   -3.5509   -2.7053    2.8495 H   0  0  0  0  0  0  0  0  0  0  0  0
    3.8356   -3.1002    2.3545 H   0  0  0  0  0  0  0  0  0  0  0  0
    3.0383   -4.4008    1.4367 H   0  0  0  0  0  0  0  0  0  0  0  0
    3.6169   -3.2605   -0.7410 H   0  0  0  0  0  0  0  0  0  0  0  0
    5.0587   -3.6567    0.3008 H   0  0  0  0  0  0  0  0  0  0  0  0
  1  2  1  0
  2  3  1  0
  3  4  2  0
  4  5  1  0
  5  6  2  0
  6  7  1  0
  7  8  1  0
  8  9  1  0
  7 10  2  0
 10 11  1  0
 11 12  1  0
  5 13  1  0
 13 14  2  0
 13 15  1  0
 15 16  1  0
 16 17  1  0
 17 18  1  0
 18 19  1  0
 19 20  1  0
 20 21  1  0
 21 22  2  0
 21 23  1  0
 23 24  2  0
 24 25  1  0
 25 26  2  0
 26 27  1  0
 27 28  1  0
 28 29  2  0
 28 30  1  0
 30 31  2  0
 31 32  1  0
 32 33  1  0
 32 34  2  0
 34 35  1  0
 35 36  1  0
 35 37  2  0
 26 38  1  0
 38 39  2  0
 18 40  1  0
 40 41  1  0
 10  3  1  0
 41 15  1  0
 39 23  1  0
 37 30  1  0
  1 42  1  0
  1 43  1  0
  1 44  1  0
  4 45  1  0
  6 46  1  0
  9 47  1  0
  9 48  1  0
  9 49  1  0
 12 50  1  0
 12 51  1  0
 12 52  1  0
 16 53  1  0
 16 54  1  0
 17 55  1  0
 17 56  1  0
 18 57  1  0
 19 58  1  0
 19 59  1  0
 20 60  1  0
 24 61  1  0
 25 62  1  0
 27 63  1  0
 31 64  1  0
 33 65  1  0
 33 66  1  0
 33 67  1  0
 34 68  1  0
 36 69  1  0
 36 70  1  0
 36 71  1  0
 37 72  1  0
 38 73  1  0
 39 74  1  0
 40 75  1  0
 40 76  1  0
 41 77  1  0
 41 78  1  0
M  END
$$$$
[H]c1nc([H])c2sc(C(=O)N([H])[H])c([H])c2c1Oc1c([H])c([H])c(N([H])C(=O)c2c([H])c([H])c(C(F)(F)F)c(C(F)(F)F)c2[H])c([H])c1[H]
     RDKit          3D

 49 52  0  0  0  0  0  0  0  0999 V2000
  -10.0187    1.9768    0.2863 N   0  0  0  0  0  0  0  0  0  0  0  0
   -8.6348    2.2121    0.2276 C   0  0  0  0  0  0  0  0  0  0  0  0
   -8.1741    3.3726    0.1740 O   0  0  0  0  0  0  0  0  0  0  0  0
   -7.6663    1.0871    0.2270 C   0  0  0  0  0  0  0  0  0  0  0  0
   -6.3036    1.1474    0.1745 C   0  0  0  0  0  0  0  0  0  0  0  0
   -5.6334   -0.0303    0.1867 C   0  0  0  0  0  0  0  0  0  0  0  0
   -4.2335   -0.2016    0.1402 C   0  0  0  0  0  0  0  0  0  0  0  0
   -3.3586    0.8672    0.0740 O   0  0  0  0  0  0  0  0  0  0  0  0
   -1.9913    0.7064    0.0283 C   0  0  0  0  0  0  0  0  0  0  0  0
   -1.2649    0.6639    1.2044 C   0  0  0  0  0  0  0  0  0  0  0  0
    0.0920    0.5037    1.1318 C   0  0  0  0  0  0  0  0  0  0  0  0
    0.7512    0.3831   -0.1023 C   0  0  0  0  0  0  0  0  0  0  0  0
    2.1596    0.1955   -0.0741 N   0  0  0  0  0  0  0  0  0  0  0  0
    3.0218    0.4481   -1.1455 C   0  0  0  0  0  0  0  0  0  0  0  0
    2.6000    0.8839   -2.2422 O   0  0  0  0  0  0  0  0  0  0  0  0
    4.4644    0.1927   -0.9689 C   0  0  0  0  0  0  0  0  0  0  0  0
    5.3695    0.8690   -1.7443 C   0  0  0  0  0  0  0  0  0  0  0  0
    6.7001    0.5982   -1.5593 C   0  0  0  0  0  0  0  0  0  0  0  0
    7.1938   -0.3259   -0.6282 C   0  0  0  0  0  0  0  0  0  0  0  0
    6.2844   -0.9971    0.1412 C   0  0  0  0  0  0  0  0  0  0  0  0
    4.9143   -0.7121   -0.0555 C   0  0  0  0  0  0  0  0  0  0  0  0
    6.6529   -1.9883    1.1288 C   0  0  0  0  0  0  0  0  0  0  0  0
    7.4512   -1.6163    2.1593 F   0  0  0  0  0  0  0  0  0  0  0  0
    7.0565   -3.2202    0.5742 F   0  0  0  0  0  0  0  0  0  0  0  0
    5.4641   -2.3881    1.7892 F   0  0  0  0  0  0  0  0  0  0  0  0
    8.6243   -0.5312   -0.4988 C   0  0  0  0  0  0  0  0  0  0  0  0
    9.2405    0.2936   -1.4803 F   0  0  0  0  0  0  0  0  0  0  0  0
    9.1796    0.0367    0.6685 F   0  0  0  0  0  0  0  0  0  0  0  0
    9.1265   -1.7542   -0.7841 F   0  0  0  0  0  0  0  0  0  0  0  0
   -0.0046    0.4296   -1.2425 C   0  0  0  0  0  0  0  0  0  0  0  0
   -1.3784    0.5914   -1.1901 C   0  0  0  0  0  0  0  0  0  0  0  0
   -3.7107   -1.4568    0.1603 C   0  0  0  0  0  0  0  0  0  0  0  0
   -4.4372   -2.6001    0.2232 N   0  0  0  0  0  0  0  0  0  0  0  0
   -5.7701   -2.4382    0.2676 C   0  0  0  0  0  0  0  0  0  0  0  0
   -6.3785   -1.1705    0.2503 C   0  0  0  0  0  0  0  0  0  0  0  0
   -7.9779   -0.5895    0.2914 S   0  0  0  0  0  0  0  0  0  0  0  0
  -10.6489    2.0123   -0.5401 H   0  0  0  0  0  0  0  0  0  0  0  0
  -10.4525    1.7523    1.2068 H   0  0  0  0  0  0  0  0  0  0  0  0
   -5.8233    2.1595    0.1249 H   0  0  0  0  0  0  0  0  0  0  0  0
   -1.7460    0.7542    2.1716 H   0  0  0  0  0  0  0  0  0  0  0  0
    0.6846    0.4685    2.0583 H   0  0  0  0  0  0  0  0  0  0  0  0
    2.5695   -0.1662    0.8507 H   0  0  0  0  0  0  0  0  0  0  0  0
    5.0436    1.6033   -2.4891 H   0  0  0  0  0  0  0  0  0  0  0  0
    7.4131    1.1454   -2.1850 H   0  0  0  0  0  0  0  0  0  0  0  0
    4.1810   -1.2442    0.5438 H   0  0  0  0  0  0  0  0  0  0  0  0
    0.4007    0.3319   -2.2284 H   0  0  0  0  0  0  0  0  0  0  0  0
   -1.9715    0.6282   -2.0914 H   0  0  0  0  0  0  0  0  0  0  0  0
   -2.6350   -1.5947    0.1247 H   0  0  0  0  0  0  0  0  0  0  0  0
   -6.4257   -3.2892    0.3187 H   0  0  0  0  0  0  0  0  0  0  0  0
  1  2  1  0
  2  3  2  0
  2  4  1  0
  4  5  2  0
  5  6  1  0
  6  7  2  0
  7  8  1  0
  8  9  1  0
  9 10  2  0
 10 11  1  0
 11 12  2  0
 12 13  1  0
 13 14  1  0
 14 15  2  0
 14 16  1  0
 16 17  2  0
 17 18  1  0
 18 19  2  0
 19 20  1  0
 20 21  2  0
 20 22  1  0
 22 23  1  0
 22 24  1  0
 22 25  1  0
 19 26  1  0
 26 27  1  0
 26 28  1  0
 26 29  1  0
 12 30  1  0
 30 31  2  0
  7 32  1  0
 32 33  2  0
 33 34  1  0
 34 35  2  0
 35 36  1  0
 36  4  1  0
 35  6  1  0
 31  9  1  0
 21 16  1  0
  1 37  1  0
  1 38  1  0
  5 39  1  0
 10 40  1  0
 11 41  1  0
 13 42  1  0
 17 43  1  0
 18 44  1  0
 21 45  1  0
 30 46  1  0
 31 47  1  0
 32 48  1  0
 34 49  1  0
M  END
$$$$
[H]O[C@]1(c2c([H])c([H])c(F)c([H])c2[H])c2c([H])c([H])c(c([H])c2[H])[C@@]2([H])C([H])([H])C([H])([H])C([H])([H])N1C([H])([H])C2(C([H])([H])[H])C([H])([H])[H]
     RDKit          2D

 48 51  0  0  0  0  0  0  0  0999 V2000
    4.6491    0.4950    0.0000 C   0  0  0  0  0  0  0  0  0  0  0  0
    3.3086   -0.1782    0.0000 C   0  0  0  0  0  0  0  0  0  0  0  0
    4.3380   -1.2692    0.0000 C   0  0  0  0  0  0  0  0  0  0  0  0
    3.0481    1.2990    0.0000 C   0  0  0  0  0  0  0  0  0  0  0  0
    1.8991    2.2632    0.0000 N   0  0  0  0  0  0  0  0  0  0  0  0
    2.1097    1.3400    0.0000 C   0  0  0  0  0  0  0  0  0  0  0  0
    2.9599    0.4849    0.0000 C   0  0  0  0  0  0  0  0  0  0  0  0
    2.4126   -0.5014    0.0000 C   0  0  0  0  0  0  0  0  0  0  0  0
    2.5586   -1.4772    0.0000 C   0  0  0  0  0  0  0  0  0  0  0  0
    0.7500   -1.2990    0.0000 C   0  0  0  0  0  0  0  0  0  0  0  0
    1.5000    0.0000    0.0000 C   0  0  0  0  0  0  0  0  0  0  0  0
    0.7500    1.2990    0.0000 C   0  0  0  0  0  0  0  0  0  0  0  0
   -0.7500    1.2990    0.0000 C   0  0  0  0  0  0  0  0  0  0  0  0
   -1.5000    0.0000    0.0000 C   0  0  0  0  0  0  0  0  0  0  0  0
   -0.7500   -1.2990    0.0000 C   0  0  0  0  0  0  0  0  0  0  0  0
    0.3991    2.2632    0.0000 C   0  0  0  0  0  0  0  0  0  0  0  0
    0.8293    3.7002    0.0000 O   0  0  0  0  0  0  0  0  0  0  0  0
   -0.8542    3.0875    0.0000 C   0  0  0  0  0  0  0  0  0  0  0  0
   -0.7669    4.5849    0.0000 C   0  0  0  0  0  0  0  0  0  0  0  0
   -2.0202    5.4092    0.0000 C   0  0  0  0  0  0  0  0  0  0  0  0
   -3.3606    4.7360    0.0000 C   0  0  0  0  0  0  0  0  0  0  0  0
   -4.6139    5.5603    0.0000 F   0  0  0  0  0  0  0  0  0  0  0  0
   -3.4478    3.2385    0.0000 C   0  0  0  0  0  0  0  0  0  0  0  0
   -2.1946    2.4143    0.0000 C   0  0  0  0  0  0  0  0  0  0  0  0
    6.0616    0.9998    0.0000 H   0  0  0  0  0  0  0  0  0  0  0  0
    5.2384   -0.0418    0.0000 H   0  0  0  0  0  0  0  0  0  0  0  0
    4.6841    1.9946    0.0000 H   0  0  0  0  0  0  0  0  0  0  0  0
    5.3673   -2.3603    0.0000 H   0  0  0  0  0  0  0  0  0  0  0  0
    3.3805   -2.4239    0.0000 H   0  0  0  0  0  0  0  0  0  0  0  0
    5.0754   -0.9664    0.0000 H   0  0  0  0  0  0  0  0  0  0  0  0
    3.2913    2.7792    0.0000 H   0  0  0  0  0  0  0  0  0  0  0  0
    4.5481    1.3078    0.0000 H   0  0  0  0  0  0  0  0  0  0  0  0
    4.7723    2.5141    0.0000 H   0  0  0  0  0  0  0  0  0  0  0  0
    3.3930    3.2652    0.0000 H   0  0  0  0  0  0  0  0  0  0  0  0
    5.7420   -0.0021    0.0000 H   0  0  0  0  0  0  0  0  0  0  0  0
    5.3396    1.6740    0.0000 H   0  0  0  0  0  0  0  0  0  0  0  0
    4.3794   -2.3290    0.0000 H   0  0  0  0  0  0  0  0  0  0  0  0
    5.4187   -1.1514    0.0000 H   0  0  0  0  0  0  0  0  0  0  0  0
    3.2161   -2.8254    0.0000 H   0  0  0  0  0  0  0  0  0  0  0  0
    2.9554    0.3630    0.0000 H   0  0  0  0  0  0  0  0  0  0  0  0
    1.7920    2.3780    0.0000 H   0  0  0  0  0  0  0  0  0  0  0  0
   -3.0000    0.0000    0.0000 H   0  0  0  0  0  0  0  0  0  0  0  0
   -1.5000   -2.5981    0.0000 H   0  0  0  0  0  0  0  0  0  0  0  0
    0.2594    5.0877    0.0000 H   0  0  0  0  0  0  0  0  0  0  0  0
    0.4814    5.4165    0.0000 H   0  0  0  0  0  0  0  0  0  0  0  0
   -1.9330    6.9067    0.0000 H   0  0  0  0  0  0  0  0  0  0  0  0
   -4.7883    2.5653    0.0000 H   0  0  0  0  0  0  0  0  0  0  0  0
   -2.2818    0.9168    0.0000 H   0  0  0  0  0  0  0  0  0  0  0  0
  1  2  1  0
  2  3  1  0
  2  4  1  0
  4  5  1  0
  5  6  1  0
  6  7  1  0
  7  8  1  0
  8  9  1  0
  9 10  1  0
 10 11  2  0
 11 12  1  0
 12 13  2  0
 13 14  1  0
 14 15  2  0
 13 16  1  0
 16 17  1  1
 16 18  1  0
 18 19  2  0
 19 20  1  0
 20 21  2  0
 21 22  1  0
 21 23  1  0
 23 24  2  0
  9  2  1  0
 15 10  1  0
 24 18  1  0
 16  5  1  0
  1 25  1  0
  1 26  1  0
  1 27  1  0
  3 28  1  0
  3 29  1  0
  3 30  1  0
  4 31  1  0
  4 32  1  0
  6 33  1  0
  6 34  1  0
  7 35  1  0
  7 36  1  0
  8 37  1  0
  8 38  1  0
  9 39  1  6
 11 40  1  0
 12 41  1  0
 14 42  1  0
 15 43  1  0
 17 44  1  0
 19 45  1  0
 20 46  1  0
 23 47  1  0
 24 48  1  0
M  END
$$$$
[H]C([H])=C([H])C([H])([H])C1([H])c2c(n(C([H])([H])c3c([H])c([H])c([H])c([H])c3[H])c3c([H])c([H])c(OC([H])([H])[H])c([H])c23)C([H])([H])C([H])([H])N(C([H])([H])[H])C1([H])[H]
     RDKit          3D

 55 58  0  0  0  0  0  0  0  0999 V2000
   -0.1466    6.1329    0.7172 C   0  0  0  0  0  0  0  0  0  0  0  0
   -0.7569    4.8904    0.8950 O   0  0  0  0  0  0  0  0  0  0  0  0
   -0.1916    3.7569    0.3854 C   0  0  0  0  0  0  0  0  0  0  0  0
    0.9921    3.7907   -0.3180 C   0  0  0  0  0  0  0  0  0  0  0  0
    1.5196    2.6189   -0.8103 C   0  0  0  0  0  0  0  0  0  0  0  0
    0.8891    1.4179   -0.6137 C   0  0  0  0  0  0  0  0  0  0  0  0
    1.1470    0.1242   -0.9741 N   0  0  0  0  0  0  0  0  0  0  0  0
    2.3048   -0.2679   -1.7249 C   0  0  0  0  0  0  0  0  0  0  0  0
    3.4829   -0.6570   -0.8743 C   0  0  0  0  0  0  0  0  0  0  0  0
    3.6826   -1.9733   -0.5251 C   0  0  0  0  0  0  0  0  0  0  0  0
    4.7427   -2.3682    0.2469 C   0  0  0  0  0  0  0  0  0  0  0  0
    5.6448   -1.4285    0.6937 C   0  0  0  0  0  0  0  0  0  0  0  0
    5.4672   -0.1076    0.3571 C   0  0  0  0  0  0  0  0  0  0  0  0
    4.3852    0.2812   -0.4284 C   0  0  0  0  0  0  0  0  0  0  0  0
    0.1565   -0.6660   -0.5101 C   0  0  0  0  0  0  0  0  0  0  0  0
    0.0631   -2.1319   -0.7105 C   0  0  0  0  0  0  0  0  0  0  0  0
   -1.3295   -2.4762   -1.1186 C   0  0  0  0  0  0  0  0  0  0  0  0
   -2.2334   -2.6009   -0.0562 N   0  0  0  0  0  0  0  0  0  0  0  0
   -2.8699   -3.8536    0.1247 C   0  0  0  0  0  0  0  0  0  0  0  0
   -2.0542   -1.7953    1.0859 C   0  0  0  0  0  0  0  0  0  0  0  0
   -1.9895   -0.3146    0.8294 C   0  0  0  0  0  0  0  0  0  0  0  0
   -3.2602    0.1304    0.1686 C   0  0  0  0  0  0  0  0  0  0  0  0
   -4.4085   -0.1701    1.0611 C   0  0  0  0  0  0  0  0  0  0  0  0
   -5.4131   -0.9625    0.7274 C   0  0  0  0  0  0  0  0  0  0  0  0
   -0.7589    0.1032    0.1609 C   0  0  0  0  0  0  0  0  0  0  0  0
   -0.3100    1.3803    0.0977 C   0  0  0  0  0  0  0  0  0  0  0  0
   -0.8310    2.5550    0.5867 C   0  0  0  0  0  0  0  0  0  0  0  0
    0.8410    6.1759    1.2381 H   0  0  0  0  0  0  0  0  0  0  0  0
   -0.8114    6.8983    1.1880 H   0  0  0  0  0  0  0  0  0  0  0  0
    0.0388    6.3996   -0.3458 H   0  0  0  0  0  0  0  0  0  0  0  0
    1.5333    4.7242   -0.5013 H   0  0  0  0  0  0  0  0  0  0  0  0
    2.4431    2.6727   -1.3612 H   0  0  0  0  0  0  0  0  0  0  0  0
    2.0737   -1.1007   -2.4475 H   0  0  0  0  0  0  0  0  0  0  0  0
    2.6769    0.5697   -2.3788 H   0  0  0  0  0  0  0  0  0  0  0  0
    3.0155   -2.7667   -0.8593 H   0  0  0  0  0  0  0  0  0  0  0  0
    4.8710   -3.4285    0.5073 H   0  0  0  0  0  0  0  0  0  0  0  0
    6.4995   -1.7300    1.3136 H   0  0  0  0  0  0  0  0  0  0  0  0
    6.1618    0.6594    0.6935 H   0  0  0  0  0  0  0  0  0  0  0  0
    4.2784    1.3415   -0.6915 H   0  0  0  0  0  0  0  0  0  0  0  0
    0.3475   -2.6071    0.2457 H   0  0  0  0  0  0  0  0  0  0  0  0
    0.7432   -2.4486   -1.5553 H   0  0  0  0  0  0  0  0  0  0  0  0
   -1.2678   -3.4522   -1.6860 H   0  0  0  0  0  0  0  0  0  0  0  0
   -1.6967   -1.7390   -1.8649 H   0  0  0  0  0  0  0  0  0  0  0  0
   -2.1757   -4.6835   -0.1220 H   0  0  0  0  0  0  0  0  0  0  0  0
   -3.2870   -3.9260    1.1332 H   0  0  0  0  0  0  0  0  0  0  0  0
   -3.7078   -3.9281   -0.6228 H   0  0  0  0  0  0  0  0  0  0  0  0
   -1.1201   -2.0607    1.6597 H   0  0  0  0  0  0  0  0  0  0  0  0
   -2.8951   -1.9695    1.7881 H   0  0  0  0  0  0  0  0  0  0  0  0
   -1.9804    0.1708    1.8506 H   0  0  0  0  0  0  0  0  0  0  0  0
   -3.4128   -0.5043   -0.7424 H   0  0  0  0  0  0  0  0  0  0  0  0
   -3.2556    1.1636   -0.1925 H   0  0  0  0  0  0  0  0  0  0  0  0
   -4.4236    0.2858    2.0409 H   0  0  0  0  0  0  0  0  0  0  0  0
   -6.2462   -1.1896    1.3556 H   0  0  0  0  0  0  0  0  0  0  0  0
   -5.3952   -1.4191   -0.2575 H   0  0  0  0  0  0  0  0  0  0  0  0
   -1.7726    2.4835    1.1411 H   0  0  0  0  0  0  0  0  0  0  0  0
  1  2  1  0
  2  3  1  0
  3  4  2  0
  4  5  1  0
  5  6  2  0
  6  7  1  0
  7  8  1  0
  8  9  1  0
  9 10  2  0
 10 11  1  0
 11 12  2  0
 12 13  1  0
 13 14  2  0
  7 15  1  0
 15 16  1  0
 16 17  1  0
 17 18  1  0
 18 19  1  0
 18 20  1  0
 20 21  1  0
 21 22  1  0
 22 23  1  0
 23 24  2  3
 21 25  1  0
 25 26  1  0
 26 27  2  0
 27  3  1  0
 26  6  1  0
 14  9  1  0
 25 15  2  0
  1 28  1  0
  1 29  1  0
  1 30  1  0
  4 31  1  0
  5 32  1  0
  8 33  1  0
  8 34  1  0
 10 35  1  0
 11 36  1  0
 12 37  1  0
 13 38  1  0
 14 39  1  0
 16 40  1  0
 16 41  1  0
 17 42  1  0
 17 43  1  0
 19 44  1  0
 19 45  1  0
 19 46  1  0
 20 47  1  0
 20 48  1  0
 21 49  1  0
 22 50  1  0
 22 51  1  0
 23 52  1  0
 24 53  1  0
 24 54  1  0
 27 55  1  0
M  END
$$$$
[H]c1c([H])c([H])c(C([H])([H])N([H])C(=O)C(=O)[C@@]([H])(N([H])C(=O)[C@@]2([H])N(C(=O)C3(c4c([H])c([H])c(Cl)c([H])c4[H])C([H])([H])C3([H])[H])C([H])([H])[C@]([H])(S(=O)(=O)c3c([H])c([H])c([H])c([H])c3Cl)C2([H])[H])C([H])([H])C([H])([H])C([H])([H])[H])c([H])c1[H]
     RDKit          3D

 81 85  0  0  0  0  0  0  0  0999 V2000
    3.6363   -4.1815    1.3883 C   0  0  0  0  0  0  0  0  0  0  0  0
    2.7865   -2.9277    1.5747 C   0  0  0  0  0  0  0  0  0  0  0  0
    3.3846   -1.7769    0.7674 C   0  0  0  0  0  0  0  0  0  0  0  0
    2.6018   -0.5206    0.9203 C   0  0  2  0  0  0  0  0  0  0  0  0
    1.2174   -0.7029    0.4695 N   0  0  0  0  0  0  0  0  0  0  0  0
    0.1055   -0.1074    1.1943 C   0  0  0  0  0  0  0  0  0  0  0  0
    0.4706    0.5480    2.1847 O   0  0  0  0  0  0  0  0  0  0  0  0
   -1.2067   -0.3349    0.7068 C   0  0  2  0  0  0  0  0  0  0  0  0
   -1.3323   -0.5733   -0.8132 C   0  0  0  0  0  0  0  0  0  0  0  0
   -2.8458   -0.8856   -0.8831 C   0  0  2  0  0  0  0  0  0  0  0  0
   -3.3975   -0.3710    0.4234 C   0  0  0  0  0  0  0  0  0  0  0  0
   -2.3031    0.5620    0.8620 N   0  0  0  0  0  0  0  0  0  0  0  0
   -2.4899    1.7821    1.4185 C   0  0  0  0  0  0  0  0  0  0  0  0
   -1.5597    2.1418    2.3253 O   0  0  0  0  0  0  0  0  0  0  0  0
   -3.4675    2.8855    1.3048 C   0  0  0  0  0  0  0  0  0  0  0  0
   -3.5550    3.8502    2.4484 C   0  0  0  0  0  0  0  0  0  0  0  0
   -4.5771    2.7565    2.3975 C   0  0  0  0  0  0  0  0  0  0  0  0
   -4.1270    3.3330    0.0477 C   0  0  0  0  0  0  0  0  0  0  0  0
   -4.9196    2.6763   -0.7933 C   0  0  0  0  0  0  0  0  0  0  0  0
   -5.4368    3.2458   -1.9747 C   0  0  0  0  0  0  0  0  0  0  0  0
   -5.1290    4.5406   -2.3058 C   0  0  0  0  0  0  0  0  0  0  0  0
   -5.7150    5.3346   -3.7329 Cl  0  0  0  0  0  0  0  0  0  0  0  0
   -4.3004    5.2550   -1.4409 C   0  0  0  0  0  0  0  0  0  0  0  0
   -3.8248    4.6710   -0.3198 C   0  0  0  0  0  0  0  0  0  0  0  0
   -2.9562   -2.6404   -1.0100 S   0  0  0  0  0  0  0  0  0  0  0  0
   -2.0842   -3.3869   -0.0733 O   0  0  0  0  0  0  0  0  0  0  0  0
   -2.4467   -2.9750   -2.4174 O   0  0  0  0  0  0  0  0  0  0  0  0
   -4.5580   -3.2799   -0.9141 C   0  0  0  0  0  0  0  0  0  0  0  0
   -5.7163   -2.5717   -0.7504 C   0  0  0  0  0  0  0  0  0  0  0  0
   -6.9633   -3.2046   -0.6527 C   0  0  0  0  0  0  0  0  0  0  0  0
   -7.0794   -4.5771   -0.7188 C   0  0  0  0  0  0  0  0  0  0  0  0
   -5.9006   -5.2937   -0.8880 C   0  0  0  0  0  0  0  0  0  0  0  0
   -4.6804   -4.6699   -0.9827 C   0  0  0  0  0  0  0  0  0  0  0  0
   -3.2748   -5.6779   -1.2069 Cl  0  0  0  0  0  0  0  0  0  0  0  0
    3.2361    0.5832    0.1434 C   0  0  0  0  0  0  0  0  0  0  0  0
    2.6238    1.1474   -0.7854 O   0  0  0  0  0  0  0  0  0  0  0  0
    4.5758    1.0054    0.4799 C   0  0  0  0  0  0  0  0  0  0  0  0
    5.2401    0.4925    1.4286 O   0  0  0  0  0  0  0  0  0  0  0  0
    5.2256    2.0357   -0.2476 N   0  0  0  0  0  0  0  0  0  0  0  0
    6.5843    2.4728    0.0689 C   0  0  0  0  0  0  0  0  0  0  0  0
    7.6011    1.5213   -0.4418 C   0  0  0  0  0  0  0  0  0  0  0  0
    7.8931    1.5028   -1.7787 C   0  0  0  0  0  0  0  0  0  0  0  0
    8.8344    0.6473   -2.2923 C   0  0  0  0  0  0  0  0  0  0  0  0
    9.5030   -0.2079   -1.4767 C   0  0  0  0  0  0  0  0  0  0  0  0
    9.2165   -0.2011   -0.1113 C   0  0  0  0  0  0  0  0  0  0  0  0
    8.2621    0.6665    0.4101 C   0  0  0  0  0  0  0  0  0  0  0  0
    4.1431   -4.1458    0.3790 H   0  0  0  0  0  0  0  0  0  0  0  0
    3.0196   -5.0922    1.3925 H   0  0  0  0  0  0  0  0  0  0  0  0
    4.4442   -4.2720    2.1281 H   0  0  0  0  0  0  0  0  0  0  0  0
    1.7750   -3.1480    1.1363 H   0  0  0  0  0  0  0  0  0  0  0  0
    2.6801   -2.7077    2.6390 H   0  0  0  0  0  0  0  0  0  0  0  0
    3.4713   -2.0978   -0.2965 H   0  0  0  0  0  0  0  0  0  0  0  0
    4.4065   -1.6563    1.1537 H   0  0  0  0  0  0  0  0  0  0  0  0
    2.5826   -0.1864    1.9560 H   0  0  0  0  0  0  0  0  0  0  0  0
    1.0068   -1.2582   -0.3590 H   0  0  0  0  0  0  0  0  0  0  0  0
   -1.5841   -1.3452    1.1301 H   0  0  0  0  0  0  0  0  0  0  0  0
   -0.7579   -1.4523   -1.1245 H   0  0  0  0  0  0  0  0  0  0  0  0
   -1.0657    0.3026   -1.3924 H   0  0  0  0  0  0  0  0  0  0  0  0
   -3.3412   -0.4286   -1.7346 H   0  0  0  0  0  0  0  0  0  0  0  0
   -4.3639    0.0119    0.4770 H   0  0  0  0  0  0  0  0  0  0  0  0
   -3.3547   -1.2180    1.2002 H   0  0  0  0  0  0  0  0  0  0  0  0
   -2.8281    3.7570    3.2614 H   0  0  0  0  0  0  0  0  0  0  0  0
   -3.8906    4.9024    2.2672 H   0  0  0  0  0  0  0  0  0  0  0  0
   -5.5925    3.0770    2.1457 H   0  0  0  0  0  0  0  0  0  0  0  0
   -4.4891    1.8883    3.0664 H   0  0  0  0  0  0  0  0  0  0  0  0
   -5.2597    1.6767   -0.6197 H   0  0  0  0  0  0  0  0  0  0  0  0
   -6.0700    2.6817   -2.6215 H   0  0  0  0  0  0  0  0  0  0  0  0
   -4.0523    6.2882   -1.6969 H   0  0  0  0  0  0  0  0  0  0  0  0
   -3.1955    5.2190    0.3333 H   0  0  0  0  0  0  0  0  0  0  0  0
   -5.6363   -1.5068   -0.7042 H   0  0  0  0  0  0  0  0  0  0  0  0
   -7.8360   -2.5643   -0.5195 H   0  0  0  0  0  0  0  0  0  0  0  0
   -8.0393   -5.0744   -0.6438 H   0  0  0  0  0  0  0  0  0  0  0  0
   -6.0140   -6.3767   -0.9377 H   0  0  0  0  0  0  0  0  0  0  0  0
    4.6929    2.4820   -1.0297 H   0  0  0  0  0  0  0  0  0  0  0  0
    6.7090    2.5498    1.1864 H   0  0  0  0  0  0  0  0  0  0  0  0
    6.7384    3.4481   -0.4179 H   0  0  0  0  0  0  0  0  0  0  0  0
    7.3796    2.1678   -2.4669 H   0  0  0  0  0  0  0  0  0  0  0  0
    9.0616    0.6392   -3.3610 H   0  0  0  0  0  0  0  0  0  0  0  0
   10.2533   -0.8937   -1.8590 H   0  0  0  0  0  0  0  0  0  0  0  0
    9.7587   -0.8849    0.5146 H   0  0  0  0  0  0  0  0  0  0  0  0
    8.0967    0.6283    1.4652 H   0  0  0  0  0  0  0  0  0  0  0  0
  1  2  1  0
  2  3  1  0
  3  4  1  0
  4  5  1  0
  5  6  1  0
  6  7  2  0
  6  8  1  0
  8  9  1  0
  9 10  1  0
 10 11  1  0
 11 12  1  0
 12 13  1  0
 13 14  2  0
 13 15  1  0
 15 16  1  0
 16 17  1  0
 15 18  1  0
 18 19  2  0
 19 20  1  0
 20 21  2  0
 21 22  1  0
 21 23  1  0
 23 24  2  0
 10 25  1  0
 25 26  2  0
 25 27  2  0
 25 28  1  0
 28 29  2  0
 29 30  1  0
 30 31  2  0
 31 32  1  0
 32 33  2  0
 33 34  1  0
  4 35  1  0
 35 36  2  0
 35 37  1  0
 37 38  2  0
 37 39  1  0
 39 40  1  0
 40 41  1  0
 41 42  2  0
 42 43  1  0
 43 44  2  0
 44 45  1  0
 45 46  2  0
 12  8  1  0
 17 15  1  0
 24 18  1  0
 33 28  1  0
 46 41  1  0
  1 47  1  0
  1 48  1  0
  1 49  1  0
  2 50  1  0
  2 51  1  0
  3 52  1  0
  3 53  1  0
  4 54  1  1
  5 55  1  0
  8 56  1  1
  9 57  1  0
  9 58  1  0
 10 59  1  6
 11 60  1  0
 11 61  1  0
 16 62  1  0
 16 63  1  0
 17 64  1  0
 17 65  1  0
 19 66  1  0
 20 67  1  0
 23 68  1  0
 24 69  1  0
 29 70  1  0
 30 71  1  0
 31 72  1  0
 32 73  1  0
 39 74  1  0
 40 75  1  0
 40 76  1  0
 42 77  1  0
 43 78  1  0
 44 79  1  0
 45 80  1  0
 46 81  1  0
M  END
$$$$
[H]c1c([H])c(S(=O)(=O)N(C([H])([H])[H])C([H])([H])C2([H])C([H])([H])C([H])([H])C2([H])[H])c([H])c(Cl)c1Cl
     RDKit          3D

 33 34  0  0  0  0  0  0  0  0999 V2000
   -0.0271   -1.5185   -1.0880 C   0  0  0  0  0  0  0  0  0  0  0  0
   -0.2723   -0.6166   -0.0346 N   0  0  0  0  0  0  0  0  0  0  0  0
   -1.4686   -0.7441    0.6904 C   0  0  0  0  0  0  0  0  0  0  0  0
   -2.6295   -0.3513   -0.1862 C   0  0  0  0  0  0  0  0  0  0  0  0
   -3.9891   -0.4584    0.5166 C   0  0  0  0  0  0  0  0  0  0  0  0
   -4.3897    0.7755   -0.3034 C   0  0  0  0  0  0  0  0  0  0  0  0
   -2.8960    1.1330   -0.2937 C   0  0  0  0  0  0  0  0  0  0  0  0
    0.5551    0.8217    0.0034 S   0  0  0  0  0  0  0  0  0  0  0  0
    0.3404    1.6429   -1.2405 O   0  0  0  0  0  0  0  0  0  0  0  0
    0.1339    1.6388    1.1858 O   0  0  0  0  0  0  0  0  0  0  0  0
    2.2899    0.4969    0.1353 C   0  0  0  0  0  0  0  0  0  0  0  0
    3.0666    0.3496   -0.9962 C   0  0  0  0  0  0  0  0  0  0  0  0
    4.4229    0.0957   -0.8707 C   0  0  0  0  0  0  0  0  0  0  0  0
    5.0220   -0.0147    0.3664 C   0  0  0  0  0  0  0  0  0  0  0  0
    6.7534   -0.3388    0.5181 Cl  0  0  0  0  0  0  0  0  0  0  0  0
    4.2238    0.1366    1.4811 C   0  0  0  0  0  0  0  0  0  0  0  0
    4.9562    0.0018    3.0644 Cl  0  0  0  0  0  0  0  0  0  0  0  0
    2.8696    0.3902    1.3864 C   0  0  0  0  0  0  0  0  0  0  0  0
   -0.3076   -1.0459   -2.0636 H   0  0  0  0  0  0  0  0  0  0  0  0
   -0.5649   -2.4566   -0.9468 H   0  0  0  0  0  0  0  0  0  0  0  0
    1.0631   -1.7571   -1.1726 H   0  0  0  0  0  0  0  0  0  0  0  0
   -1.4326   -0.1279    1.6110 H   0  0  0  0  0  0  0  0  0  0  0  0
   -1.5914   -1.7956    1.0402 H   0  0  0  0  0  0  0  0  0  0  0  0
   -2.6002   -0.8133   -1.1928 H   0  0  0  0  0  0  0  0  0  0  0  0
   -4.5454   -1.3640    0.2700 H   0  0  0  0  0  0  0  0  0  0  0  0
   -3.8293   -0.2362    1.5911 H   0  0  0  0  0  0  0  0  0  0  0  0
   -4.7327    0.4273   -1.3008 H   0  0  0  0  0  0  0  0  0  0  0  0
   -5.0269    1.4848    0.2237 H   0  0  0  0  0  0  0  0  0  0  0  0
   -2.7072    1.7203    0.6272 H   0  0  0  0  0  0  0  0  0  0  0  0
   -2.5570    1.5985   -1.2422 H   0  0  0  0  0  0  0  0  0  0  0  0
    2.6087    0.4339   -1.9793 H   0  0  0  0  0  0  0  0  0  0  0  0
    5.0316   -0.0197   -1.7394 H   0  0  0  0  0  0  0  0  0  0  0  0
    2.2299    0.5114    2.2672 H   0  0  0  0  0  0  0  0  0  0  0  0
  1  2  1  0
  2  3  1  0
  3  4  1  0
  4  5  1  0
  5  6  1  0
  6  7  1  0
  2  8  1  0
  8  9  2  0
  8 10  2  0
  8 11  1  0
 11 12  2  0
 12 13  1  0
 13 14  2  0
 14 15  1  0
 14 16  1  0
 16 17  1  0
 16 18  2  0
  7  4  1  0
 18 11  1  0
  1 19  1  0
  1 20  1  0
  1 21  1  0
  3 22  1  0
  3 23  1  0
  4 24  1  0
  5 25  1  0
  5 26  1  0
  6 27  1  0
  6 28  1  0
  7 29  1  0
  7 30  1  0
 12 31  1  0
 13 32  1  0
 18 33  1  0
M  END
$$$$
[H]c1nc2c([H])c(-c3c([H])c([H])c(C([H])([H])N4C([H])([H])C([H])([H])C([H])([H])C([H])([H])C4([H])[H])c([H])c3[H])c([H])c([H])n2c1-c1c([H])c([H])c(C([H])([H])N([H])C(=O)C(F)(F)F)c([H])c1[H]
     RDKit          3D

 63 67  0  0  0  0  0  0  0  0999 V2000
   11.0286    1.8330   -1.6694 F   0  0  0  0  0  0  0  0  0  0  0  0
   10.3596    0.7734   -2.2421 C   0  0  0  0  0  0  0  0  0  0  0  0
    9.4633    1.2965   -3.1584 F   0  0  0  0  0  0  0  0  0  0  0  0
   11.2847   -0.0153   -2.9036 F   0  0  0  0  0  0  0  0  0  0  0  0
    9.6730   -0.0417   -1.1926 C   0  0  0  0  0  0  0  0  0  0  0  0
    9.7943    0.3149   -0.0031 O   0  0  0  0  0  0  0  0  0  0  0  0
    8.9072   -1.1800   -1.5014 N   0  0  0  0  0  0  0  0  0  0  0  0
    8.2341   -1.9855   -0.5174 C   0  0  0  0  0  0  0  0  0  0  0  0
    7.0054   -1.2740   -0.0810 C   0  0  0  0  0  0  0  0  0  0  0  0
    5.8924   -1.2063   -0.8877 C   0  0  0  0  0  0  0  0  0  0  0  0
    4.7360   -0.5568   -0.4986 C   0  0  0  0  0  0  0  0  0  0  0  0
    4.6692    0.0445    0.7230 C   0  0  0  0  0  0  0  0  0  0  0  0
    5.8153   -0.0293    1.5428 C   0  0  0  0  0  0  0  0  0  0  0  0
    6.9702   -0.6708    1.1671 C   0  0  0  0  0  0  0  0  0  0  0  0
    3.5262    0.6979    1.3283 C   0  0  0  0  0  0  0  0  0  0  0  0
    3.5774    1.5687    2.4314 C   0  0  0  0  0  0  0  0  0  0  0  0
    2.3528    1.9460    2.7580 N   0  0  0  0  0  0  0  0  0  0  0  0
    1.4778    1.3583    1.9132 C   0  0  0  0  0  0  0  0  0  0  0  0
    0.1061    1.4079    1.8366 C   0  0  0  0  0  0  0  0  0  0  0  0
   -0.5773    0.7003    0.8965 C   0  0  0  0  0  0  0  0  0  0  0  0
    0.1253   -0.0646    0.0257 C   0  0  0  0  0  0  0  0  0  0  0  0
    1.5111   -0.0953    0.1259 C   0  0  0  0  0  0  0  0  0  0  0  0
    2.2086    0.5973    1.0451 N   0  0  0  0  0  0  0  0  0  0  0  0
   -2.0172    0.7690    0.8377 C   0  0  0  0  0  0  0  0  0  0  0  0
   -2.7392    0.6440   -0.3264 C   0  0  0  0  0  0  0  0  0  0  0  0
   -4.1333    0.7166   -0.3535 C   0  0  0  0  0  0  0  0  0  0  0  0
   -4.8175    0.9207    0.8251 C   0  0  0  0  0  0  0  0  0  0  0  0
   -6.2916    0.9973    0.8122 C   0  0  0  0  0  0  0  0  0  0  0  0
   -6.8000    0.3433   -0.3335 N   0  0  0  0  0  0  0  0  0  0  0  0
   -6.5475   -1.0308   -0.4930 C   0  0  0  0  0  0  0  0  0  0  0  0
   -7.7086   -1.9340   -0.1519 C   0  0  0  0  0  0  0  0  0  0  0  0
   -9.0278   -1.4349   -0.6302 C   0  0  0  0  0  0  0  0  0  0  0  0
   -9.2326    0.0430   -0.5174 C   0  0  0  0  0  0  0  0  0  0  0  0
   -8.0134    0.8467   -0.8739 C   0  0  0  0  0  0  0  0  0  0  0  0
   -4.1205    1.0521    2.0258 C   0  0  0  0  0  0  0  0  0  0  0  0
   -2.7586    0.9747    2.0064 C   0  0  0  0  0  0  0  0  0  0  0  0
    8.8251   -1.4536   -2.5112 H   0  0  0  0  0  0  0  0  0  0  0  0
    7.9803   -2.9806   -0.9374 H   0  0  0  0  0  0  0  0  0  0  0  0
    8.8810   -2.1628    0.3757 H   0  0  0  0  0  0  0  0  0  0  0  0
    5.9173   -1.6676   -1.8454 H   0  0  0  0  0  0  0  0  0  0  0  0
    3.9218   -0.5072   -1.1957 H   0  0  0  0  0  0  0  0  0  0  0  0
    5.8254    0.4233    2.5213 H   0  0  0  0  0  0  0  0  0  0  0  0
    7.8281   -0.7108    1.8235 H   0  0  0  0  0  0  0  0  0  0  0  0
    4.5137    1.8556    2.8979 H   0  0  0  0  0  0  0  0  0  0  0  0
   -0.3983    2.0387    2.5629 H   0  0  0  0  0  0  0  0  0  0  0  0
   -0.3831   -0.6462   -0.7402 H   0  0  0  0  0  0  0  0  0  0  0  0
    2.0170   -0.7371   -0.5653 H   0  0  0  0  0  0  0  0  0  0  0  0
   -2.1751    0.4825   -1.2503 H   0  0  0  0  0  0  0  0  0  0  0  0
   -4.6060    0.6069   -1.3215 H   0  0  0  0  0  0  0  0  0  0  0  0
   -6.7356    0.6703    1.7722 H   0  0  0  0  0  0  0  0  0  0  0  0
   -6.5494    2.0908    0.7126 H   0  0  0  0  0  0  0  0  0  0  0  0
   -5.7243   -1.3410    0.1944 H   0  0  0  0  0  0  0  0  0  0  0  0
   -6.1646   -1.2313   -1.5288 H   0  0  0  0  0  0  0  0  0  0  0  0
   -7.5076   -2.9020   -0.6988 H   0  0  0  0  0  0  0  0  0  0  0  0
   -7.6917   -2.2067    0.9367 H   0  0  0  0  0  0  0  0  0  0  0  0
   -9.8140   -1.9107    0.0287 H   0  0  0  0  0  0  0  0  0  0  0  0
   -9.2795   -1.8119   -1.6576 H   0  0  0  0  0  0  0  0  0  0  0  0
   -9.5691    0.3572    0.5041 H   0  0  0  0  0  0  0  0  0  0  0  0
  -10.0448    0.3418   -1.2118 H   0  0  0  0  0  0  0  0  0  0  0  0
   -7.9410    0.9085   -1.9669 H   0  0  0  0  0  0  0  0  0  0  0  0
   -8.1742    1.8773   -0.4941 H   0  0  0  0  0  0  0  0  0  0  0  0
   -4.6792    1.2127    2.9453 H   0  0  0  0  0  0  0  0  0  0  0  0
   -2.2059    1.0770    2.9447 H   0  0  0  0  0  0  0  0  0  0  0  0
  1  2  1  0
  2  3  1  0
  2  4  1  0
  2  5  1  0
  5  6  2  0
  5  7  1  0
  7  8  1  0
  8  9  1  0
  9 10  2  0
 10 11  1  0
 11 12  2  0
 12 13  1  0
 13 14  2  0
 12 15  1  0
 15 16  2  0
 16 17  1  0
 17 18  2  0
 18 19  1  0
 19 20  2  0
 20 21  1  0
 21 22  2  0
 22 23  1  0
 20 24  1  0
 24 25  2  0
 25 26  1  0
 26 27  2  0
 27 28  1  0
 28 29  1  0
 29 30  1  0
 30 31  1  0
 31 32  1  0
 32 33  1  0
 33 34  1  0
 27 35  1  0
 35 36  2  0
 14  9  1  0
 23 15  1  0
 36 24  1  0
 23 18  1  0
 34 29  1  0
  7 37  1  0
  8 38  1  0
  8 39  1  0
 10 40  1  0
 11 41  1  0
 13 42  1  0
 14 43  1  0
 16 44  1  0
 19 45  1  0
 21 46  1  0
 22 47  1  0
 25 48  1  0
 26 49  1  0
 28 50  1  0
 28 51  1  0
 30 52  1  0
 30 53  1  0
 31 54  1  0
 31 55  1  0
 32 56  1  0
 32 57  1  0
 33 58  1  0
 33 59  1  0
 34 60  1  0
 34 61  1  0
 35 62  1  0
 36 63  1  0
M  END
$$$$
[H]c1c([H])c([H])c(-c2c([H])c([H])c(C3([H])C([H])([H])C4([H])N([H])C3([H])C([H])([H])C4([H])[H])c([H])c2[H])c(Br)c1[H]
     RDKit          3D

 38 41  0  0  0  0  0  0  0  0999 V2000
    2.5705    1.4333    2.7818 Br  0  0  0  0  0  0  0  0  0  0  0  0
    3.8144    0.8916    1.4345 C   0  0  0  0  0  0  0  0  0  0  0  0
    5.1807    1.1506    1.6231 C   0  0  0  0  0  0  0  0  0  0  0  0
    6.1053    0.7596    0.6827 C   0  0  0  0  0  0  0  0  0  0  0  0
    5.6519    0.1086   -0.4457 C   0  0  0  0  0  0  0  0  0  0  0  0
    4.3157   -0.1419   -0.6255 C   0  0  0  0  0  0  0  0  0  0  0  0
    3.3632    0.2461    0.3147 C   0  0  0  0  0  0  0  0  0  0  0  0
    1.9437   -0.0191    0.0872 C   0  0  0  0  0  0  0  0  0  0  0  0
    0.9921    0.9626    0.1721 C   0  0  0  0  0  0  0  0  0  0  0  0
   -0.3611    0.6850   -0.0360 C   0  0  0  0  0  0  0  0  0  0  0  0
   -0.8004   -0.5799   -0.3347 C   0  0  0  0  0  0  0  0  0  0  0  0
    0.1638   -1.5536   -0.4173 C   0  0  0  0  0  0  0  0  0  0  0  0
    1.5021   -1.3035   -0.2161 C   0  0  0  0  0  0  0  0  0  0  0  0
   -2.1986   -0.9301   -0.5519 C   0  0  0  0  0  0  0  0  0  0  0  0
   -3.0048    0.1162   -1.2861 C   0  0  0  0  0  0  0  0  0  0  0  0
   -4.3441    0.0613   -0.6065 C   0  0  0  0  0  0  0  0  0  0  0  0
   -4.2565    0.9339    0.6241 C   0  0  0  0  0  0  0  0  0  0  0  0
   -3.2837    0.1233    1.4776 C   0  0  0  0  0  0  0  0  0  0  0  0
   -3.0301   -1.1317    0.6827 C   0  0  0  0  0  0  0  0  0  0  0  0
   -4.3566   -1.2633    0.0329 N   0  0  0  0  0  0  0  0  0  0  0  0
    5.5004    1.6633    2.5199 H   0  0  0  0  0  0  0  0  0  0  0  0
    7.1684    0.9546    0.8170 H   0  0  0  0  0  0  0  0  0  0  0  0
    6.4103   -0.1897   -1.1741 H   0  0  0  0  0  0  0  0  0  0  0  0
    3.9588   -0.6575   -1.5196 H   0  0  0  0  0  0  0  0  0  0  0  0
    1.3232    1.9694    0.3971 H   0  0  0  0  0  0  0  0  0  0  0  0
   -1.0247    1.5278    0.0465 H   0  0  0  0  0  0  0  0  0  0  0  0
   -0.1174   -2.5842   -0.6524 H   0  0  0  0  0  0  0  0  0  0  0  0
    2.2668   -2.0649   -0.2795 H   0  0  0  0  0  0  0  0  0  0  0  0
   -2.2854   -1.9221   -1.1080 H   0  0  0  0  0  0  0  0  0  0  0  0
   -2.6018    1.1403   -1.1770 H   0  0  0  0  0  0  0  0  0  0  0  0
   -3.0590   -0.1143   -2.3682 H   0  0  0  0  0  0  0  0  0  0  0  0
   -5.1944    0.2430   -1.2357 H   0  0  0  0  0  0  0  0  0  0  0  0
   -5.2442    1.0231    1.1082 H   0  0  0  0  0  0  0  0  0  0  0  0
   -3.8261    1.9160    0.3412 H   0  0  0  0  0  0  0  0  0  0  0  0
   -3.8395   -0.1768    2.4115 H   0  0  0  0  0  0  0  0  0  0  0  0
   -2.3839    0.6664    1.7614 H   0  0  0  0  0  0  0  0  0  0  0  0
   -2.7787   -2.0009    1.2716 H   0  0  0  0  0  0  0  0  0  0  0  0
   -4.2403   -1.9425   -0.7549 H   0  0  0  0  0  0  0  0  0  0  0  0
  1  2  1  0
  2  3  2  0
  3  4  1  0
  4  5  2  0
  5  6  1  0
  6  7  2  0
  7  8  1  0
  8  9  2  0
  9 10  1  0
 10 11  2  0
 11 12  1  0
 12 13  2  0
 11 14  1  0
 14 15  1  0
 15 16  1  0
 16 17  1  0
 17 18  1  0
 18 19  1  0
 19 20  1  0
  7  2  1  0
 13  8  1  0
 19 14  1  0
 20 16  1  0
  3 21  1  0
  4 22  1  0
  5 23  1  0
  6 24  1  0
  9 25  1  0
 10 26  1  0
 12 27  1  0
 13 28  1  0
 14 29  1  0
 15 30  1  0
 15 31  1  0
 16 32  1  0
 17 33  1  0
 17 34  1  0
 18 35  1  0
 18 36  1  0
 19 37  1  0
 20 38  1  0
M  END
$$$$
[H]c1c([H])c([H])c(C(=O)c2c([H])c([H])c(N([H])[C@]([H])(C(F)(F)F)[P+]([O-])(OC([H])([H])[H])OC([H])([H])[H])c([H])c2[H])c([H])c1[H]
     RDKit          3D

 43 44  0  0  0  0  0  0  0  0999 V2000
   -2.2037    0.1489   -2.0290 O   0  0  0  0  0  0  0  0  0  0  0  0
   -3.4485    0.0746   -0.8782 P   0  0  0  0  0  0  0  0  0  0  0  0
   -3.8176    1.6325   -0.4464 O   0  0  0  0  0  0  0  0  0  0  0  0
   -4.4256    1.7950    0.7612 C   0  0  0  0  0  0  0  0  0  0  0  0
   -4.7391   -0.6937   -1.6813 O   0  0  0  0  0  0  0  0  0  0  0  0
   -5.8866    0.0652   -1.7122 C   0  0  0  0  0  0  0  0  0  0  0  0
   -2.8893   -0.9763    0.4800 C   0  0  2  0  0  0  0  0  0  0  0  0
   -1.5954   -1.5589    0.2098 N   0  0  0  0  0  0  0  0  0  0  0  0
   -0.3877   -0.7963    0.0950 C   0  0  0  0  0  0  0  0  0  0  0  0
   -0.3325    0.5558    0.3760 C   0  0  0  0  0  0  0  0  0  0  0  0
    0.8592    1.2292    0.2392 C   0  0  0  0  0  0  0  0  0  0  0  0
    2.0230    0.6129   -0.1716 C   0  0  0  0  0  0  0  0  0  0  0  0
    1.9481   -0.7266   -0.4456 C   0  0  0  0  0  0  0  0  0  0  0  0
    0.7463   -1.4350   -0.3135 C   0  0  0  0  0  0  0  0  0  0  0  0
    3.2663    1.3224   -0.3358 C   0  0  0  0  0  0  0  0  0  0  0  0
    3.1557    2.5540   -0.6612 O   0  0  0  0  0  0  0  0  0  0  0  0
    4.6038    0.8135   -0.1783 C   0  0  0  0  0  0  0  0  0  0  0  0
    4.8898   -0.2828    0.5927 C   0  0  0  0  0  0  0  0  0  0  0  0
    6.1929   -0.7702    0.7208 C   0  0  0  0  0  0  0  0  0  0  0  0
    7.2301   -0.1516    0.0672 C   0  0  0  0  0  0  0  0  0  0  0  0
    6.9634    0.9585   -0.7174 C   0  0  0  0  0  0  0  0  0  0  0  0
    5.6734    1.4164   -0.8254 C   0  0  0  0  0  0  0  0  0  0  0  0
   -3.8549   -2.1080    0.7566 C   0  0  0  0  0  0  0  0  0  0  0  0
   -3.3131   -2.8424    1.8187 F   0  0  0  0  0  0  0  0  0  0  0  0
   -3.9614   -2.9737   -0.3029 F   0  0  0  0  0  0  0  0  0  0  0  0
   -5.0746   -1.6514    1.2134 F   0  0  0  0  0  0  0  0  0  0  0  0
   -4.3919    2.8976    1.0046 H   0  0  0  0  0  0  0  0  0  0  0  0
   -5.5219    1.5696    0.7068 H   0  0  0  0  0  0  0  0  0  0  0  0
   -3.9284    1.2993    1.6130 H   0  0  0  0  0  0  0  0  0  0  0  0
   -5.7293    1.1331   -1.9603 H   0  0  0  0  0  0  0  0  0  0  0  0
   -6.5071   -0.0436   -0.7731 H   0  0  0  0  0  0  0  0  0  0  0  0
   -6.5418   -0.4093   -2.5019 H   0  0  0  0  0  0  0  0  0  0  0  0
   -2.7630   -0.4048    1.4264 H   0  0  0  0  0  0  0  0  0  0  0  0
   -1.5422   -2.5933    0.0915 H   0  0  0  0  0  0  0  0  0  0  0  0
   -1.2412    1.0379    0.6989 H   0  0  0  0  0  0  0  0  0  0  0  0
    0.9121    2.2853    0.4576 H   0  0  0  0  0  0  0  0  0  0  0  0
    2.8267   -1.2536   -0.7812 H   0  0  0  0  0  0  0  0  0  0  0  0
    0.7391   -2.4941   -0.5409 H   0  0  0  0  0  0  0  0  0  0  0  0
    4.0955   -0.7878    1.1310 H   0  0  0  0  0  0  0  0  0  0  0  0
    6.4042   -1.6317    1.3291 H   0  0  0  0  0  0  0  0  0  0  0  0
    8.2597   -0.5083    0.1474 H   0  0  0  0  0  0  0  0  0  0  0  0
    7.8168    1.4164   -1.2179 H   0  0  0  0  0  0  0  0  0  0  0  0
    5.4910    2.2752   -1.4352 H   0  0  0  0  0  0  0  0  0  0  0  0
  1  2  1  0
  2  3  1  0
  3  4  1  0
  2  5  1  0
  5  6  1  0
  2  7  1  0
  7  8  1  0
  8  9  1  0
  9 10  2  0
 10 11  1  0
 11 12  2  0
 12 13  1  0
 13 14  2  0
 12 15  1  0
 15 16  2  0
 15 17  1  0
 17 18  2  0
 18 19  1  0
 19 20  2  0
 20 21  1  0
 21 22  2  0
  7 23  1  0
 23 24  1  0
 23 25  1  0
 23 26  1  0
 14  9  1  0
 22 17  1  0
  4 27  1  0
  4 28  1  0
  4 29  1  0
  6 30  1  0
  6 31  1  0
  6 32  1  0
  7 33  1  1
  8 34  1  0
 10 35  1  0
 11 36  1  0
 13 37  1  0
 14 38  1  0
 18 39  1  0
 19 40  1  0
 20 41  1  0
 21 42  1  0
 22 43  1  0
M  CHG  2   1  -1   2   1
M  END
$$$$
[H]c1c(C(=O)N([H])C2([H])C([H])([H])C2([H])[H])nnc(-c2c([H])c([H])c([H])c(Cl)c2C([H])([H])[H])c1[H]
     RDKit          3D

 34 36  0  0  0  0  0  0  0  0999 V2000
    3.0753    2.2715   -0.0173 C   0  0  0  0  0  0  0  0  0  0  0  0
    3.6866    0.9020   -0.1405 C   0  0  0  0  0  0  0  0  0  0  0  0
    5.0944    0.8352   -0.1947 C   0  0  0  0  0  0  0  0  0  0  0  0
    5.9894    2.3080   -0.0374 Cl  0  0  0  0  0  0  0  0  0  0  0  0
    5.7080   -0.3625   -0.3645 C   0  0  0  0  0  0  0  0  0  0  0  0
    4.9696   -1.5277   -0.4862 C   0  0  0  0  0  0  0  0  0  0  0  0
    3.6070   -1.4224   -0.4275 C   0  0  0  0  0  0  0  0  0  0  0  0
    2.9220   -0.2101   -0.2522 C   0  0  0  0  0  0  0  0  0  0  0  0
    1.4808   -0.2684   -0.2484 C   0  0  0  0  0  0  0  0  0  0  0  0
    0.6094    0.5399    0.3995 C   0  0  0  0  0  0  0  0  0  0  0  0
   -0.7528    0.2774    0.3251 C   0  0  0  0  0  0  0  0  0  0  0  0
   -1.2275   -0.7854   -0.3909 C   0  0  0  0  0  0  0  0  0  0  0  0
   -0.3358   -1.5601   -1.0146 N   0  0  0  0  0  0  0  0  0  0  0  0
    0.9314   -1.3216   -0.9503 N   0  0  0  0  0  0  0  0  0  0  0  0
   -2.6376   -1.1117   -0.5067 C   0  0  0  0  0  0  0  0  0  0  0  0
   -3.0187   -2.1182   -1.1905 O   0  0  0  0  0  0  0  0  0  0  0  0
   -3.6263   -0.3346    0.1267 N   0  0  0  0  0  0  0  0  0  0  0  0
   -5.0201   -0.6928   -0.0132 C   0  0  0  0  0  0  0  0  0  0  0  0
   -6.0200    0.4414   -0.0547 C   0  0  0  0  0  0  0  0  0  0  0  0
   -5.8992   -0.4222    1.1850 C   0  0  0  0  0  0  0  0  0  0  0  0
    2.8989    2.5223    1.0407 H   0  0  0  0  0  0  0  0  0  0  0  0
    3.8625    3.0043   -0.3598 H   0  0  0  0  0  0  0  0  0  0  0  0
    2.1832    2.3547   -0.6626 H   0  0  0  0  0  0  0  0  0  0  0  0
    6.7822   -0.4208   -0.4068 H   0  0  0  0  0  0  0  0  0  0  0  0
    5.5010   -2.4561   -0.6200 H   0  0  0  0  0  0  0  0  0  0  0  0
    3.0294   -2.3524   -0.5240 H   0  0  0  0  0  0  0  0  0  0  0  0
    0.9251    1.3662    1.0028 H   0  0  0  0  0  0  0  0  0  0  0  0
   -1.4217    0.9506    0.8585 H   0  0  0  0  0  0  0  0  0  0  0  0
   -3.3458    0.4892    0.6889 H   0  0  0  0  0  0  0  0  0  0  0  0
   -5.2919   -1.5661   -0.6113 H   0  0  0  0  0  0  0  0  0  0  0  0
   -5.6244    1.4792    0.0613 H   0  0  0  0  0  0  0  0  0  0  0  0
   -6.8914    0.3359   -0.7008 H   0  0  0  0  0  0  0  0  0  0  0  0
   -6.7257   -1.1580    1.3790 H   0  0  0  0  0  0  0  0  0  0  0  0
   -5.4172    0.0133    2.0726 H   0  0  0  0  0  0  0  0  0  0  0  0
  1  2  1  0
  2  3  2  0
  3  4  1  0
  3  5  1  0
  5  6  2  0
  6  7  1  0
  7  8  2  0
  8  9  1  0
  9 10  2  0
 10 11  1  0
 11 12  2  0
 12 13  1  0
 13 14  2  0
 12 15  1  0
 15 16  2  0
 15 17  1  0
 17 18  1  0
 18 19  1  0
 19 20  1  0
  8  2  1  0
 14  9  1  0
 20 18  1  0
  1 21  1  0
  1 22  1  0
  1 23  1  0
  5 24  1  0
  6 25  1  0
  7 26  1  0
 10 27  1  0
 11 28  1  0
 17 29  1  0
 18 30  1  0
 19 31  1  0
 19 32  1  0
 20 33  1  0
 20 34  1  0
M  END
$$$$
[H]OC([H])([H])C(=O)N([H])C([H])([H])C1(N([H])S(=O)(=O)c2c([H])c(Br)c(Br)c([H])c2Br)C([H])([H])SC(=S)N([H])C1(C([H])([H])[H])C([H])([H])[H]
     RDKit          3D

 46 47  0  0  0  0  0  0  0  0999 V2000
   -1.8272   -1.1053   -2.4210 C   0  0  0  0  0  0  0  0  0  0  0  0
   -1.2713   -1.6716   -1.1055 C   0  0  0  0  0  0  0  0  0  0  0  0
   -2.3217   -2.2060   -0.2286 C   0  0  0  0  0  0  0  0  0  0  0  0
   -0.4597   -2.8330   -1.5118 N   0  0  0  0  0  0  0  0  0  0  0  0
    0.3548   -3.4867   -0.5523 C   0  0  0  0  0  0  0  0  0  0  0  0
    1.2399   -4.7939   -0.8666 S   0  0  0  0  0  0  0  0  0  0  0  0
    0.3602   -2.7857    1.0803 S   0  0  0  0  0  0  0  0  0  0  0  0
   -0.0088   -1.0286    0.9299 C   0  0  0  0  0  0  0  0  0  0  0  0
   -0.3129   -0.6594   -0.4823 C   0  0  0  0  0  0  0  0  0  0  0  0
   -0.8882    0.7345   -0.4657 C   0  0  0  0  0  0  0  0  0  0  0  0
   -2.0893    0.9406    0.2476 N   0  0  0  0  0  0  0  0  0  0  0  0
   -2.6616    2.2439    0.2803 C   0  0  0  0  0  0  0  0  0  0  0  0
   -2.0626    3.1625   -0.3357 O   0  0  0  0  0  0  0  0  0  0  0  0
   -3.9216    2.5416    1.0078 C   0  0  0  0  0  0  0  0  0  0  0  0
   -4.2036    3.8927    0.8432 O   0  0  0  0  0  0  0  0  0  0  0  0
    0.8467   -0.7134   -1.2956 N   0  0  0  0  0  0  0  0  0  0  0  0
    2.0528    0.3960   -1.2636 S   0  0  0  0  0  0  0  0  0  0  0  0
    1.7090    1.7776   -1.7744 O   0  0  0  0  0  0  0  0  0  0  0  0
    3.0819   -0.0604   -2.3200 O   0  0  0  0  0  0  0  0  0  0  0  0
    2.9747    0.6307    0.1889 C   0  0  0  0  0  0  0  0  0  0  0  0
    2.8729    1.8246    0.9042 C   0  0  0  0  0  0  0  0  0  0  0  0
    3.5504    2.0777    2.0645 C   0  0  0  0  0  0  0  0  0  0  0  0
    3.3613    3.7428    2.9940 Br  0  0  0  0  0  0  0  0  0  0  0  0
    4.3886    1.1260    2.5867 C   0  0  0  0  0  0  0  0  0  0  0  0
    5.3587    1.4460    4.2196 Br  0  0  0  0  0  0  0  0  0  0  0  0
    4.5213   -0.0698    1.9134 C   0  0  0  0  0  0  0  0  0  0  0  0
    3.8279   -0.3007    0.7447 C   0  0  0  0  0  0  0  0  0  0  0  0
    4.0891   -1.9479   -0.1742 Br  0  0  0  0  0  0  0  0  0  0  0  0
   -1.0814   -0.4758   -2.9298 H   0  0  0  0  0  0  0  0  0  0  0  0
   -2.1005   -1.9201   -3.1192 H   0  0  0  0  0  0  0  0  0  0  0  0
   -2.7546   -0.5642   -2.1409 H   0  0  0  0  0  0  0  0  0  0  0  0
   -2.2411   -2.1202    0.8403 H   0  0  0  0  0  0  0  0  0  0  0  0
   -2.5642   -3.2926   -0.4420 H   0  0  0  0  0  0  0  0  0  0  0  0
   -3.2893   -1.6879   -0.5076 H   0  0  0  0  0  0  0  0  0  0  0  0
   -0.4614   -3.1920   -2.4731 H   0  0  0  0  0  0  0  0  0  0  0  0
   -0.8845   -0.8592    1.6135 H   0  0  0  0  0  0  0  0  0  0  0  0
    0.7835   -0.3934    1.3865 H   0  0  0  0  0  0  0  0  0  0  0  0
   -0.1074    1.3827   -0.0119 H   0  0  0  0  0  0  0  0  0  0  0  0
   -1.0703    1.0177   -1.5402 H   0  0  0  0  0  0  0  0  0  0  0  0
   -2.6338    0.2282    0.7791 H   0  0  0  0  0  0  0  0  0  0  0  0
   -3.7080    2.3406    2.0900 H   0  0  0  0  0  0  0  0  0  0  0  0
   -4.7162    1.8811    0.6405 H   0  0  0  0  0  0  0  0  0  0  0  0
   -3.8813    4.2482   -0.0358 H   0  0  0  0  0  0  0  0  0  0  0  0
    0.7490   -1.2393   -2.1948 H   0  0  0  0  0  0  0  0  0  0  0  0
    2.2108    2.5728    0.4891 H   0  0  0  0  0  0  0  0  0  0  0  0
    5.1891   -0.8015    2.3485 H   0  0  0  0  0  0  0  0  0  0  0  0
  1  2  1  0
  2  3  1  0
  2  4  1  0
  4  5  1  0
  5  6  2  0
  5  7  1  0
  7  8  1  0
  8  9  1  0
  9 10  1  0
 10 11  1  0
 11 12  1  0
 12 13  2  0
 12 14  1  0
 14 15  1  0
  9 16  1  0
 16 17  1  0
 17 18  2  0
 17 19  2  0
 17 20  1  0
 20 21  2  0
 21 22  1  0
 22 23  1  0
 22 24  2  0
 24 25  1  0
 24 26  1  0
 26 27  2  0
 27 28  1  0
  9  2  1  0
 27 20  1  0
  1 29  1  0
  1 30  1  0
  1 31  1  0
  3 32  1  0
  3 33  1  0
  3 34  1  0
  4 35  1  0
  8 36  1  0
  8 37  1  0
 10 38  1  0
 10 39  1  0
 11 40  1  0
 14 41  1  0
 14 42  1  0
 15 43  1  0
 16 44  1  0
 21 45  1  0
 26 46  1  0
M  END
$$$$
[H]Oc1c([H])c([H])c([H])c([H])c1C([H])(O[H])c1c([H])c([H])c(N([H])C(=O)c2c([H])c(F)c([H])c(OC([H])([H])[H])c2[H])c(C([H])([H])[H])c1[H]
     RDKit          3D

 48 50  0  0  0  0  0  0  0  0999 V2000
    7.7801   -0.4498   -1.1531 C   0  0  0  0  0  0  0  0  0  0  0  0
    6.3844   -0.5329   -0.9922 O   0  0  0  0  0  0  0  0  0  0  0  0
    5.6952    0.4090   -0.2156 C   0  0  0  0  0  0  0  0  0  0  0  0
    6.4298    1.4238    0.3884 C   0  0  0  0  0  0  0  0  0  0  0  0
    5.7172    2.3266    1.1410 C   0  0  0  0  0  0  0  0  0  0  0  0
    6.3807    3.3543    1.7654 F   0  0  0  0  0  0  0  0  0  0  0  0
    4.3617    2.2376    1.2917 C   0  0  0  0  0  0  0  0  0  0  0  0
    3.6335    1.2309    0.6925 C   0  0  0  0  0  0  0  0  0  0  0  0
    4.3326    0.3273   -0.0588 C   0  0  0  0  0  0  0  0  0  0  0  0
    2.1652    1.1517    0.8622 C   0  0  0  0  0  0  0  0  0  0  0  0
    1.6512    2.1792    1.3361 O   0  0  0  0  0  0  0  0  0  0  0  0
    1.4069    0.0365    0.5287 N   0  0  0  0  0  0  0  0  0  0  0  0
    0.0360   -0.2162    0.6167 C   0  0  0  0  0  0  0  0  0  0  0  0
   -0.8666    0.6914    1.1099 C   0  0  0  0  0  0  0  0  0  0  0  0
   -2.2289    0.4527    1.2044 C   0  0  0  0  0  0  0  0  0  0  0  0
   -2.6941   -0.7612    0.7789 C   0  0  0  0  0  0  0  0  0  0  0  0
   -1.8217   -1.7283    0.2658 C   0  0  0  0  0  0  0  0  0  0  0  0
   -0.4871   -1.4407    0.1951 C   0  0  0  0  0  0  0  0  0  0  0  0
    0.4449   -2.4684   -0.3504 C   0  0  0  0  0  0  0  0  0  0  0  0
   -4.1527   -1.0618    0.8614 C   0  0  0  0  0  0  0  0  0  0  0  0
   -4.6952   -0.6704    2.0732 O   0  0  0  0  0  0  0  0  0  0  0  0
   -4.9053   -0.5535   -0.3120 C   0  0  0  0  0  0  0  0  0  0  0  0
   -4.9068   -1.2146   -1.5145 C   0  0  0  0  0  0  0  0  0  0  0  0
   -5.5849   -0.7682   -2.6096 C   0  0  0  0  0  0  0  0  0  0  0  0
   -6.3016    0.4005   -2.5046 C   0  0  0  0  0  0  0  0  0  0  0  0
   -6.3165    1.0782   -1.3178 C   0  0  0  0  0  0  0  0  0  0  0  0
   -5.6250    0.6221   -0.2018 C   0  0  0  0  0  0  0  0  0  0  0  0
   -5.6670    1.3447    0.9928 O   0  0  0  0  0  0  0  0  0  0  0  0
    8.1293   -1.1384   -1.9481 H   0  0  0  0  0  0  0  0  0  0  0  0
    8.2568   -0.7874   -0.2030 H   0  0  0  0  0  0  0  0  0  0  0  0
    8.0683    0.5811   -1.4325 H   0  0  0  0  0  0  0  0  0  0  0  0
    7.4972    1.5180    0.2871 H   0  0  0  0  0  0  0  0  0  0  0  0
    3.8273    2.9625    1.8902 H   0  0  0  0  0  0  0  0  0  0  0  0
    3.8333   -0.4803   -0.5572 H   0  0  0  0  0  0  0  0  0  0  0  0
    2.0102   -0.7825    0.1311 H   0  0  0  0  0  0  0  0  0  0  0  0
   -0.5426    1.6627    1.4576 H   0  0  0  0  0  0  0  0  0  0  0  0
   -2.8568    1.2216    1.6048 H   0  0  0  0  0  0  0  0  0  0  0  0
   -2.2354   -2.6839   -0.0626 H   0  0  0  0  0  0  0  0  0  0  0  0
    1.1119   -2.8858    0.4486 H   0  0  0  0  0  0  0  0  0  0  0  0
    1.0316   -2.0768   -1.2071 H   0  0  0  0  0  0  0  0  0  0  0  0
   -0.1273   -3.3341   -0.7432 H   0  0  0  0  0  0  0  0  0  0  0  0
   -4.2571   -2.1865    0.8159 H   0  0  0  0  0  0  0  0  0  0  0  0
   -4.0194   -0.5808    2.7877 H   0  0  0  0  0  0  0  0  0  0  0  0
   -4.3415   -2.1370   -1.5984 H   0  0  0  0  0  0  0  0  0  0  0  0
   -5.6028   -1.2680   -3.5658 H   0  0  0  0  0  0  0  0  0  0  0  0
   -6.8618    0.7958   -3.3616 H   0  0  0  0  0  0  0  0  0  0  0  0
   -6.8841    2.0136   -1.2161 H   0  0  0  0  0  0  0  0  0  0  0  0
   -6.2033    2.1857    1.0110 H   0  0  0  0  0  0  0  0  0  0  0  0
  1  2  1  0
  2  3  1  0
  3  4  2  0
  4  5  1  0
  5  6  1  0
  5  7  2  0
  7  8  1  0
  8  9  2  0
  8 10  1  0
 10 11  2  0
 10 12  1  0
 12 13  1  0
 13 14  2  0
 14 15  1  0
 15 16  2  0
 16 17  1  0
 17 18  2  0
 18 19  1  0
 16 20  1  0
 20 21  1  0
 20 22  1  0
 22 23  2  0
 23 24  1  0
 24 25  2  0
 25 26  1  0
 26 27  2  0
 27 28  1  0
  9  3  1  0
 18 13  1  0
 27 22  1  0
  1 29  1  0
  1 30  1  0
  1 31  1  0
  4 32  1  0
  7 33  1  0
  9 34  1  0
 12 35  1  0
 14 36  1  0
 15 37  1  0
 17 38  1  0
 19 39  1  0
 19 40  1  0
 19 41  1  0
 20 42  1  0
 21 43  1  0
 23 44  1  0
 24 45  1  0
 25 46  1  0
 26 47  1  0
 28 48  1  0
M  END
$$$$
[H]c1nn(C([H])([H])[H])nc1-c1c([H])c([H])c([H])c(Oc2c([H])c([H])c(N([H])C(=O)c3c([H])c([H])c(OC([H])([H])[H])c([H])c3[H])c([H])c2[H])c1[H]
     RDKit          3D

 50 53  0  0  0  0  0  0  0  0999 V2000
   10.1510   -0.1193   -0.0638 C   0  0  0  0  0  0  0  0  0  0  0  0
    9.4744    0.3525   -1.2135 O   0  0  0  0  0  0  0  0  0  0  0  0
    8.0791    0.3600   -1.2852 C   0  0  0  0  0  0  0  0  0  0  0  0
    7.2861   -0.0865   -0.2527 C   0  0  0  0  0  0  0  0  0  0  0  0
    5.8911   -0.0868   -0.3062 C   0  0  0  0  0  0  0  0  0  0  0  0
    5.2666    0.3787   -1.4390 C   0  0  0  0  0  0  0  0  0  0  0  0
    6.0721    0.8302   -2.4828 C   0  0  0  0  0  0  0  0  0  0  0  0
    7.4392    0.8231   -2.4127 C   0  0  0  0  0  0  0  0  0  0  0  0
    3.8149    0.3958   -1.5524 C   0  0  0  0  0  0  0  0  0  0  0  0
    3.3322    1.0671   -2.4714 O   0  0  0  0  0  0  0  0  0  0  0  0
    3.0177   -0.3229   -0.6516 N   0  0  0  0  0  0  0  0  0  0  0  0
    1.6021   -0.4037   -0.6217 C   0  0  0  0  0  0  0  0  0  0  0  0
    0.7485    0.4362   -1.2921 C   0  0  0  0  0  0  0  0  0  0  0  0
   -0.6477    0.2827   -1.2348 C   0  0  0  0  0  0  0  0  0  0  0  0
   -1.2292   -0.7214   -0.5000 C   0  0  0  0  0  0  0  0  0  0  0  0
   -2.6112   -0.8591   -0.4543 O   0  0  0  0  0  0  0  0  0  0  0  0
   -3.3690   -0.2324    0.4928 C   0  0  0  0  0  0  0  0  0  0  0  0
   -2.7942    0.5598    1.4390 C   0  0  0  0  0  0  0  0  0  0  0  0
   -3.6011    1.1647    2.3654 C   0  0  0  0  0  0  0  0  0  0  0  0
   -4.9810    0.9767    2.3444 C   0  0  0  0  0  0  0  0  0  0  0  0
   -5.5667    0.1797    1.3937 C   0  0  0  0  0  0  0  0  0  0  0  0
   -7.0178   -0.0431    1.3387 C   0  0  0  0  0  0  0  0  0  0  0  0
   -7.9525    0.4960    2.1997 C   0  0  0  0  0  0  0  0  0  0  0  0
   -9.1329    0.0322    1.7839 N   0  0  0  0  0  0  0  0  0  0  0  0
   -8.9756   -0.7479    0.7338 N   0  0  0  0  0  0  0  0  0  0  0  0
  -10.0363   -1.4490   -0.0133 C   0  0  0  0  0  0  0  0  0  0  0  0
   -7.6984   -0.7940    0.4640 N   0  0  0  0  0  0  0  0  0  0  0  0
   -4.7540   -0.4242    0.4676 C   0  0  0  0  0  0  0  0  0  0  0  0
   -0.3813   -1.5690    0.1766 C   0  0  0  0  0  0  0  0  0  0  0  0
    0.9846   -1.4219    0.1226 C   0  0  0  0  0  0  0  0  0  0  0  0
    9.9755    0.5425    0.8130 H   0  0  0  0  0  0  0  0  0  0  0  0
    9.7894   -1.1620    0.1352 H   0  0  0  0  0  0  0  0  0  0  0  0
   11.2233   -0.1416   -0.2529 H   0  0  0  0  0  0  0  0  0  0  0  0
    7.8043   -0.4521    0.6378 H   0  0  0  0  0  0  0  0  0  0  0  0
    5.3675   -0.4552    0.5607 H   0  0  0  0  0  0  0  0  0  0  0  0
    5.5314    1.1915   -3.3646 H   0  0  0  0  0  0  0  0  0  0  0  0
    8.0216    1.1842   -3.2497 H   0  0  0  0  0  0  0  0  0  0  0  0
    3.4975   -0.8964    0.1300 H   0  0  0  0  0  0  0  0  0  0  0  0
    1.1384    1.2568   -1.8816 H   0  0  0  0  0  0  0  0  0  0  0  0
   -1.2899    0.9558   -1.7709 H   0  0  0  0  0  0  0  0  0  0  0  0
   -1.7184    0.6923    1.4367 H   0  0  0  0  0  0  0  0  0  0  0  0
   -3.1597    1.7959    3.1220 H   0  0  0  0  0  0  0  0  0  0  0  0
   -5.6160    1.4583    3.0808 H   0  0  0  0  0  0  0  0  0  0  0  0
   -7.7223    1.1555    3.0279 H   0  0  0  0  0  0  0  0  0  0  0  0
  -10.9963   -1.0525    0.3186 H   0  0  0  0  0  0  0  0  0  0  0  0
   -9.9086   -1.1869   -1.0950 H   0  0  0  0  0  0  0  0  0  0  0  0
   -9.9668   -2.5451    0.1458 H   0  0  0  0  0  0  0  0  0  0  0  0
   -5.1648   -1.0569   -0.2960 H   0  0  0  0  0  0  0  0  0  0  0  0
   -0.8430   -2.3689    0.7623 H   0  0  0  0  0  0  0  0  0  0  0  0
    1.6263   -2.1058    0.6653 H   0  0  0  0  0  0  0  0  0  0  0  0
  1  2  1  0
  2  3  1  0
  3  4  2  0
  4  5  1  0
  5  6  2  0
  6  7  1  0
  7  8  2  0
  6  9  1  0
  9 10  2  0
  9 11  1  0
 11 12  1  0
 12 13  2  0
 13 14  1  0
 14 15  2  0
 15 16  1  0
 16 17  1  0
 17 18  2  0
 18 19  1  0
 19 20  2  0
 20 21  1  0
 21 22  1  0
 22 23  1  0
 23 24  2  0
 24 25  1  0
 25 26  1  0
 25 27  1  0
 21 28  2  0
 15 29  1  0
 29 30  2  0
  8  3  1  0
 30 12  1  0
 28 17  1  0
 27 22  2  0
  1 31  1  0
  1 32  1  0
  1 33  1  0
  4 34  1  0
  5 35  1  0
  7 36  1  0
  8 37  1  0
 11 38  1  0
 13 39  1  0
 14 40  1  0
 18 41  1  0
 19 42  1  0
 20 43  1  0
 23 44  1  0
 26 45  1  0
 26 46  1  0
 26 47  1  0
 28 48  1  0
 29 49  1  0
 30 50  1  0
M  END
$$$$
[H]c1c([H])c([H])c2c(c1[H])c1c3c(c4c5c([H])c([H])c([H])c([H])c5n5c4c1n2[C@@]1(C([H])([H])[H])O[C@]5([H])C([H])([H])[C@@]([H])(N([H])C([H])([H])[H])[C@@]1([H])OC([H])([H])[H])C(=O)N([H])C3([H])[H]
     RDKit          3D

 61 68  0  0  0  0  0  0  0  0999 V2000
   -3.3415   -2.0929    0.8927 C   0  0  0  0  0  0  0  0  0  0  0  0
   -2.7520   -0.8244    0.5060 N   0  0  0  0  0  0  0  0  0  0  0  0
   -2.5947   -0.7699   -0.9652 C   0  0  2  0  0  0  0  0  0  0  0  0
   -1.6635   -1.8336   -1.3456 C   0  0  0  0  0  0  0  0  0  0  0  0
   -0.4098   -1.3263   -1.9401 C   0  0  1  0  0  0  0  0  0  0  0  0
   -0.2904   -0.0961   -2.3609 O   0  0  0  0  0  0  0  0  0  0  0  0
   -0.9141    0.9817   -1.7381 C   0  0  1  0  0  0  0  0  0  0  0  0
   -0.8729    2.0231   -2.8643 C   0  0  0  0  0  0  0  0  0  0  0  0
   -2.2914    0.6326   -1.4119 C   0  0  2  0  0  0  0  0  0  0  0  0
   -2.9229    1.4324   -0.4622 O   0  0  0  0  0  0  0  0  0  0  0  0
   -4.0664    2.0564   -0.9455 C   0  0  0  0  0  0  0  0  0  0  0  0
   -0.0747    1.3904   -0.5981 N   0  0  0  0  0  0  0  0  0  0  0  0
    0.0066    2.5943   -0.0347 C   0  0  0  0  0  0  0  0  0  0  0  0
   -0.6403    3.7755   -0.2701 C   0  0  0  0  0  0  0  0  0  0  0  0
   -0.3753    4.9057    0.4704 C   0  0  0  0  0  0  0  0  0  0  0  0
    0.5715    4.8915    1.4994 C   0  0  0  0  0  0  0  0  0  0  0  0
    1.2169    3.7192    1.7374 C   0  0  0  0  0  0  0  0  0  0  0  0
    0.9447    2.6014    0.9941 C   0  0  0  0  0  0  0  0  0  0  0  0
    1.4533    1.3308    1.0530 C   0  0  0  0  0  0  0  0  0  0  0  0
    2.4134    0.7192    1.8621 C   0  0  0  0  0  0  0  0  0  0  0  0
    3.2252    1.2814    2.9656 C   0  0  0  0  0  0  0  0  0  0  0  0
    4.0513    0.2282    3.4563 N   0  0  0  0  0  0  0  0  0  0  0  0
    3.7725   -0.9500    2.6928 C   0  0  0  0  0  0  0  0  0  0  0  0
    4.3602   -2.0093    2.9202 O   0  0  0  0  0  0  0  0  0  0  0  0
    2.7553   -0.6238    1.7110 C   0  0  0  0  0  0  0  0  0  0  0  0
    2.1006   -1.3257    0.7242 C   0  0  0  0  0  0  0  0  0  0  0  0
    2.1422   -2.6347    0.2794 C   0  0  0  0  0  0  0  0  0  0  0  0
    2.8759   -3.7217    0.6638 C   0  0  0  0  0  0  0  0  0  0  0  0
    2.6892   -4.9254    0.0128 C   0  0  0  0  0  0  0  0  0  0  0  0
    1.7808   -5.0386   -1.0084 C   0  0  0  0  0  0  0  0  0  0  0  0
    1.0343   -3.9515   -1.4066 C   0  0  0  0  0  0  0  0  0  0  0  0
    1.2263   -2.7646   -0.7562 C   0  0  0  0  0  0  0  0  0  0  0  0
    0.6469   -1.5975   -0.9447 N   0  0  0  0  0  0  0  0  0  0  0  0
    1.1358   -0.7009   -0.0851 C   0  0  0  0  0  0  0  0  0  0  0  0
    0.8119    0.6350    0.0794 C   0  0  0  0  0  0  0  0  0  0  0  0
   -3.9345   -1.8764    1.8249 H   0  0  0  0  0  0  0  0  0  0  0  0
   -2.5804   -2.8202    1.1896 H   0  0  0  0  0  0  0  0  0  0  0  0
   -4.0376   -2.4413    0.1071 H   0  0  0  0  0  0  0  0  0  0  0  0
   -1.8252   -0.7857    0.9817 H   0  0  0  0  0  0  0  0  0  0  0  0
   -3.6418   -1.0758   -1.3069 H   0  0  0  0  0  0  0  0  0  0  0  0
   -1.4743   -2.5407   -0.4944 H   0  0  0  0  0  0  0  0  0  0  0  0
   -2.1827   -2.5069   -2.1019 H   0  0  0  0  0  0  0  0  0  0  0  0
   -0.1764   -2.0147   -2.8352 H   0  0  0  0  0  0  0  0  0  0  0  0
   -1.8561    2.5173   -2.9808 H   0  0  0  0  0  0  0  0  0  0  0  0
   -0.0367    2.7359   -2.7018 H   0  0  0  0  0  0  0  0  0  0  0  0
   -0.6761    1.5932   -3.8662 H   0  0  0  0  0  0  0  0  0  0  0  0
   -2.9127    0.7625   -2.3525 H   0  0  0  0  0  0  0  0  0  0  0  0
   -4.5472    2.6842   -0.1440 H   0  0  0  0  0  0  0  0  0  0  0  0
   -3.8494    2.7776   -1.7563 H   0  0  0  0  0  0  0  0  0  0  0  0
   -4.7942    1.3294   -1.3803 H   0  0  0  0  0  0  0  0  0  0  0  0
   -1.3647    3.8112   -1.0348 H   0  0  0  0  0  0  0  0  0  0  0  0
   -0.8845    5.8355    0.2847 H   0  0  0  0  0  0  0  0  0  0  0  0
    0.7949    5.7654    2.0918 H   0  0  0  0  0  0  0  0  0  0  0  0
    1.9682    3.6487    2.5304 H   0  0  0  0  0  0  0  0  0  0  0  0
    3.8868    2.0907    2.5395 H   0  0  0  0  0  0  0  0  0  0  0  0
    2.5967    1.6993    3.7873 H   0  0  0  0  0  0  0  0  0  0  0  0
    4.7363    0.3270    4.2421 H   0  0  0  0  0  0  0  0  0  0  0  0
    3.5871   -3.7061    1.4353 H   0  0  0  0  0  0  0  0  0  0  0  0
    3.2659   -5.8106    0.3031 H   0  0  0  0  0  0  0  0  0  0  0  0
    1.6292   -5.9934   -1.5280 H   0  0  0  0  0  0  0  0  0  0  0  0
    0.3048   -4.0175   -2.2172 H   0  0  0  0  0  0  0  0  0  0  0  0
  1  2  1  0
  2  3  1  0
  3  4  1  0
  4  5  1  0
  5  6  1  0
  6  7  1  0
  7  8  1  6
  7  9  1  0
  9 10  1  0
 10 11  1  0
  7 12  1  0
 12 13  1  0
 13 14  2  0
 14 15  1  0
 15 16  2  0
 16 17  1  0
 17 18  2  0
 18 19  1  0
 19 20  2  0
 20 21  1  0
 21 22  1  0
 22 23  1  0
 23 24  2  0
 23 25  1  0
 25 26  2  0
 26 27  1  0
 27 28  2  0
 28 29  1  0
 29 30  2  0
 30 31  1  0
 31 32  2  0
 32 33  1  0
 33 34  1  0
 34 35  2  0
  9  3  1  0
 35 12  1  0
 33  5  1  0
 18 13  1  0
 35 19  1  0
 25 20  1  0
 34 26  1  0
 32 27  1  0
  1 36  1  0
  1 37  1  0
  1 38  1  0
  2 39  1  0
  3 40  1  6
  4 41  1  0
  4 42  1  0
  5 43  1  6
  8 44  1  0
  8 45  1  0
  8 46  1  0
  9 47  1  6
 11 48  1  0
 11 49  1  0
 11 50  1  0
 14 51  1  0
 15 52  1  0
 16 53  1  0
 17 54  1  0
 21 55  1  0
 21 56  1  0
 22 57  1  0
 28 58  1  0
 29 59  1  0
 30 60  1  0
 31 61  1  0
M  END
$$$$
[H]N([H])C([H])([H])C(=O)N1C(=O)[C@](C([H])([H])[H])(C([H])([H])S(=O)(=O)N2C([H])([H])C([H])([H])C([H])([H])C2([H])[H])C([H])([H])C([H])([H])C1([H])[H]
     RDKit          3D

 44 45  0  0  0  0  0  0  0  0999 V2000
    0.0399   -0.5145   -2.6609 C   0  0  0  0  0  0  0  0  0  0  0  0
    0.5364   -0.5528   -1.2105 C   0  0  1  0  0  0  0  0  0  0  0  0
   -0.6114   -0.5727   -0.2708 C   0  0  0  0  0  0  0  0  0  0  0  0
   -1.7154    0.7740   -0.3324 S   0  0  0  0  0  0  0  0  0  0  0  0
   -2.4291    0.8342   -1.6535 O   0  0  0  0  0  0  0  0  0  0  0  0
   -1.1262    2.0950   -0.0572 O   0  0  0  0  0  0  0  0  0  0  0  0
   -2.9524    0.4816    0.8674 N   0  0  0  0  0  0  0  0  0  0  0  0
   -3.6787   -0.7378    0.5576 C   0  0  0  0  0  0  0  0  0  0  0  0
   -4.7932   -0.6677    1.6076 C   0  0  0  0  0  0  0  0  0  0  0  0
   -5.1343    0.8098    1.5569 C   0  0  0  0  0  0  0  0  0  0  0  0
   -3.9715    1.4814    0.8425 C   0  0  0  0  0  0  0  0  0  0  0  0
    1.2205   -1.9252   -1.0805 C   0  0  0  0  0  0  0  0  0  0  0  0
    2.6789   -1.8756   -1.3999 C   0  0  0  0  0  0  0  0  0  0  0  0
    3.3766   -1.1511   -0.2383 C   0  0  0  0  0  0  0  0  0  0  0  0
    2.7697    0.1754   -0.2353 N   0  0  0  0  0  0  0  0  0  0  0  0
    1.5692    0.4535   -0.9479 C   0  0  0  0  0  0  0  0  0  0  0  0
    1.3897    1.6237   -1.3725 O   0  0  0  0  0  0  0  0  0  0  0  0
    3.4030    1.2151    0.5035 C   0  0  0  0  0  0  0  0  0  0  0  0
    2.9155    2.3854    0.5377 O   0  0  0  0  0  0  0  0  0  0  0  0
    4.6567    0.9895    1.2674 C   0  0  0  0  0  0  0  0  0  0  0  0
    5.0821    2.2041    1.9215 N   0  0  0  0  0  0  0  0  0  0  0  0
   -0.1255    0.5607   -2.8972 H   0  0  0  0  0  0  0  0  0  0  0  0
   -0.9036   -1.0626   -2.7207 H   0  0  0  0  0  0  0  0  0  0  0  0
    0.8562   -0.9526   -3.2786 H   0  0  0  0  0  0  0  0  0  0  0  0
   -0.2210   -0.7586    0.7515 H   0  0  0  0  0  0  0  0  0  0  0  0
   -1.2078   -1.5014   -0.5133 H   0  0  0  0  0  0  0  0  0  0  0  0
   -3.0853   -1.6418    0.6763 H   0  0  0  0  0  0  0  0  0  0  0  0
   -4.1754   -0.6858   -0.4323 H   0  0  0  0  0  0  0  0  0  0  0  0
   -4.3153   -0.9003    2.5683 H   0  0  0  0  0  0  0  0  0  0  0  0
   -5.6392   -1.3088    1.3516 H   0  0  0  0  0  0  0  0  0  0  0  0
   -5.1985    1.2465    2.5707 H   0  0  0  0  0  0  0  0  0  0  0  0
   -6.0681    0.9364    0.9787 H   0  0  0  0  0  0  0  0  0  0  0  0
   -3.6193    2.3859    1.4043 H   0  0  0  0  0  0  0  0  0  0  0  0
   -4.2806    1.7465   -0.1808 H   0  0  0  0  0  0  0  0  0  0  0  0
    1.1219   -2.2341   -0.0190 H   0  0  0  0  0  0  0  0  0  0  0  0
    0.6675   -2.6850   -1.6746 H   0  0  0  0  0  0  0  0  0  0  0  0
    2.8212   -1.2196   -2.2877 H   0  0  0  0  0  0  0  0  0  0  0  0
    3.0454   -2.8915   -1.5362 H   0  0  0  0  0  0  0  0  0  0  0  0
    3.2093   -1.6801    0.7154 H   0  0  0  0  0  0  0  0  0  0  0  0
    4.4446   -1.0813   -0.5174 H   0  0  0  0  0  0  0  0  0  0  0  0
    5.4647    0.7333    0.5273 H   0  0  0  0  0  0  0  0  0  0  0  0
    4.5404    0.1877    2.0244 H   0  0  0  0  0  0  0  0  0  0  0  0
    4.7330    2.2534    2.9017 H   0  0  0  0  0  0  0  0  0  0  0  0
    4.7094    3.0278    1.3852 H   0  0  0  0  0  0  0  0  0  0  0  0
  2  1  1  6
  2  3  1  0
  3  4  1  0
  4  5  2  0
  4  6  2  0
  4  7  1  0
  7  8  1  0
  8  9  1  0
  9 10  1  0
 10 11  1  0
  2 12  1  0
 12 13  1  0
 13 14  1  0
 14 15  1  0
 15 16  1  0
 16 17  2  0
 15 18  1  0
 18 19  2  0
 18 20  1  0
 20 21  1  0
 16  2  1  0
 11  7  1  0
  1 22  1  0
  1 23  1  0
  1 24  1  0
  3 25  1  0
  3 26  1  0
  8 27  1  0
  8 28  1  0
  9 29  1  0
  9 30  1  0
 10 31  1  0
 10 32  1  0
 11 33  1  0
 11 34  1  0
 12 35  1  0
 12 36  1  0
 13 37  1  0
 13 38  1  0
 14 39  1  0
 14 40  1  0
 20 41  1  0
 20 42  1  0
 21 43  1  0
 21 44  1  0
M  END
$$$$
[H]c1nc(N([H])c2c([H])c(C([H])([H])[H])nn2[H])nc(O[C@@]([H])(c2c(Cl)c([H])c([H])c([H])c2Cl)C([H])([H])[H])c1-c1nn2c(C([H])([H])[H])nnc2c([H])c1[H]
     RDKit          3D

 53 57  0  0  0  0  0  0  0  0999 V2000
   -1.3160   -2.7661   -0.6426 C   0  0  0  0  0  0  0  0  0  0  0  0
   -1.5530   -1.6268    0.3148 C   0  0  1  0  0  0  0  0  0  0  0  0
   -1.0581   -0.4127   -0.2843 O   0  0  0  0  0  0  0  0  0  0  0  0
    0.2873   -0.1529   -0.1304 C   0  0  0  0  0  0  0  0  0  0  0  0
    1.1653   -0.9323    0.5163 N   0  0  0  0  0  0  0  0  0  0  0  0
    2.4904   -0.6358    0.6411 C   0  0  0  0  0  0  0  0  0  0  0  0
    3.3123   -1.5225    1.3419 N   0  0  0  0  0  0  0  0  0  0  0  0
    4.6817   -1.3454    1.5429 C   0  0  0  0  0  0  0  0  0  0  0  0
    5.5028   -0.3468    1.1419 C   0  0  0  0  0  0  0  0  0  0  0  0
    6.7899   -0.6664    1.6167 C   0  0  0  0  0  0  0  0  0  0  0  0
    7.9923    0.1767    1.3926 C   0  0  0  0  0  0  0  0  0  0  0  0
    6.6638   -1.8198    2.2634 N   0  0  0  0  0  0  0  0  0  0  0  0
    5.4314   -2.2498    2.2394 N   0  0  0  0  0  0  0  0  0  0  0  0
    2.9314    0.4792    0.0959 N   0  0  0  0  0  0  0  0  0  0  0  0
    2.1311    1.3120   -0.5642 C   0  0  0  0  0  0  0  0  0  0  0  0
    0.7927    1.0145   -0.6913 C   0  0  0  0  0  0  0  0  0  0  0  0
   -0.1233    1.8887   -1.4042 C   0  0  0  0  0  0  0  0  0  0  0  0
    0.3130    3.0354   -2.0285 C   0  0  0  0  0  0  0  0  0  0  0  0
   -0.5932    3.8586   -2.7126 C   0  0  0  0  0  0  0  0  0  0  0  0
   -1.9219    3.5216   -2.7613 C   0  0  0  0  0  0  0  0  0  0  0  0
   -2.9770    4.1341   -3.3408 N   0  0  0  0  0  0  0  0  0  0  0  0
   -4.0385    3.3832   -3.0794 N   0  0  0  0  0  0  0  0  0  0  0  0
   -3.6410    2.3280   -2.3521 C   0  0  0  0  0  0  0  0  0  0  0  0
   -4.5480    1.2677   -1.8619 C   0  0  0  0  0  0  0  0  0  0  0  0
   -2.3212    2.3800   -2.1329 N   0  0  0  0  0  0  0  0  0  0  0  0
   -1.4422    1.6248   -1.4962 N   0  0  0  0  0  0  0  0  0  0  0  0
   -2.9085   -1.5324    0.7906 C   0  0  0  0  0  0  0  0  0  0  0  0
   -3.1077   -0.7411    1.9528 C   0  0  0  0  0  0  0  0  0  0  0  0
   -1.7122    0.0212    2.7049 Cl  0  0  0  0  0  0  0  0  0  0  0  0
   -4.3269   -0.5368    2.5257 C   0  0  0  0  0  0  0  0  0  0  0  0
   -5.4382   -1.1213    1.9610 C   0  0  0  0  0  0  0  0  0  0  0  0
   -5.3109   -1.8952    0.8391 C   0  0  0  0  0  0  0  0  0  0  0  0
   -4.0429   -2.0803    0.2808 C   0  0  0  0  0  0  0  0  0  0  0  0
   -3.9956   -3.0542   -1.1871 Cl  0  0  0  0  0  0  0  0  0  0  0  0
   -1.7574   -3.6815   -0.2395 H   0  0  0  0  0  0  0  0  0  0  0  0
   -0.1780   -3.0304   -0.6076 H   0  0  0  0  0  0  0  0  0  0  0  0
   -1.5946   -2.5893   -1.6671 H   0  0  0  0  0  0  0  0  0  0  0  0
   -0.8567   -1.8410    1.1836 H   0  0  0  0  0  0  0  0  0  0  0  0
    2.8143   -2.3920    1.7394 H   0  0  0  0  0  0  0  0  0  0  0  0
    5.2898    0.5650    0.5611 H   0  0  0  0  0  0  0  0  0  0  0  0
    8.6400    0.1655    2.2790 H   0  0  0  0  0  0  0  0  0  0  0  0
    7.6655    1.2162    1.2076 H   0  0  0  0  0  0  0  0  0  0  0  0
    8.5017   -0.2371    0.4890 H   0  0  0  0  0  0  0  0  0  0  0  0
    5.0860   -3.1459    2.6866 H   0  0  0  0  0  0  0  0  0  0  0  0
    2.5605    2.2072   -0.9850 H   0  0  0  0  0  0  0  0  0  0  0  0
    1.3492    3.3427   -2.0183 H   0  0  0  0  0  0  0  0  0  0  0  0
   -0.2609    4.7609   -3.2057 H   0  0  0  0  0  0  0  0  0  0  0  0
   -5.5534    1.6621   -1.6179 H   0  0  0  0  0  0  0  0  0  0  0  0
   -4.5699    0.4530   -2.6071 H   0  0  0  0  0  0  0  0  0  0  0  0
   -4.1497    0.8129   -0.9113 H   0  0  0  0  0  0  0  0  0  0  0  0
   -4.4892    0.0637    3.4123 H   0  0  0  0  0  0  0  0  0  0  0  0
   -6.4152   -0.9550    2.4231 H   0  0  0  0  0  0  0  0  0  0  0  0
   -6.1910   -2.3638    0.3857 H   0  0  0  0  0  0  0  0  0  0  0  0
  1  2  1  0
  2  3  1  0
  3  4  1  0
  4  5  2  0
  5  6  1  0
  6  7  1  0
  7  8  1  0
  8  9  2  0
  9 10  1  0
 10 11  1  0
 10 12  2  0
 12 13  1  0
  6 14  2  0
 14 15  1  0
 15 16  2  0
 16 17  1  0
 17 18  1  0
 18 19  2  0
 19 20  1  0
 20 21  2  0
 21 22  1  0
 22 23  2  0
 23 24  1  0
 23 25  1  0
 25 26  1  0
  2 27  1  0
 27 28  2  0
 28 29  1  0
 28 30  1  0
 30 31  2  0
 31 32  1  0
 32 33  2  0
 33 34  1  0
 16  4  1  0
 26 17  2  0
 33 27  1  0
 13  8  1  0
 25 20  1  0
  1 35  1  0
  1 36  1  0
  1 37  1  0
  2 38  1  1
  7 39  1  0
  9 40  1  0
 11 41  1  0
 11 42  1  0
 11 43  1  0
 13 44  1  0
 15 45  1  0
 18 46  1  0
 19 47  1  0
 24 48  1  0
 24 49  1  0
 24 50  1  0
 30 51  1  0
 31 52  1  0
 32 53  1  0
M  END
$$$$
[H]c1nc(-c2c([H])c([H])c3nc(N([H])C(=O)N([H])[C@@]([H])(c4nc([H])c([H])c(C5([H])C([H])([H])C5([H])[H])c4[H])C([H])([H])[H])sc3c2C#N)sc1[H]
     RDKit          3D

 49 53  0  0  0  0  0  0  0  0999 V2000
   -3.3878    2.4325   -0.1510 C   0  0  0  0  0  0  0  0  0  0  0  0
   -2.7051    1.0871   -0.2775 C   0  0  1  0  0  0  0  0  0  0  0  0
   -1.7833    0.8344    0.7857 N   0  0  0  0  0  0  0  0  0  0  0  0
   -0.3996    0.6111    0.5743 C   0  0  0  0  0  0  0  0  0  0  0  0
   -0.0015    0.6464   -0.6397 O   0  0  0  0  0  0  0  0  0  0  0  0
    0.4991    0.3622    1.6406 N   0  0  0  0  0  0  0  0  0  0  0  0
    1.8789    0.1518    1.2895 C   0  0  0  0  0  0  0  0  0  0  0  0
    2.9082   -0.0954    2.0735 N   0  0  0  0  0  0  0  0  0  0  0  0
    4.0990   -0.2585    1.5590 C   0  0  0  0  0  0  0  0  0  0  0  0
    5.2769   -0.5274    2.2934 C   0  0  0  0  0  0  0  0  0  0  0  0
    6.4524   -0.6742    1.6214 C   0  0  0  0  0  0  0  0  0  0  0  0
    6.5839   -0.5798    0.2647 C   0  0  0  0  0  0  0  0  0  0  0  0
    7.8676   -0.7467   -0.3928 C   0  0  0  0  0  0  0  0  0  0  0  0
    8.2024   -0.6951   -1.6631 N   0  0  0  0  0  0  0  0  0  0  0  0
    9.4247   -0.8759   -2.0363 C   0  0  0  0  0  0  0  0  0  0  0  0
   10.3598   -1.1232   -1.0625 C   0  0  0  0  0  0  0  0  0  0  0  0
    9.3985   -1.0778    0.3483 S   0  0  0  0  0  0  0  0  0  0  0  0
    5.4574   -0.3214   -0.4528 C   0  0  0  0  0  0  0  0  0  0  0  0
    5.4420   -0.1956   -1.8768 C   0  0  0  0  0  0  0  0  0  0  0  0
    5.4463   -0.0962   -3.0285 N   0  0  0  0  0  0  0  0  0  0  0  0
    4.2177   -0.1616    0.1988 C   0  0  0  0  0  0  0  0  0  0  0  0
    2.6078    0.1593   -0.2666 S   0  0  0  0  0  0  0  0  0  0  0  0
   -3.7627    0.0462   -0.2921 C   0  0  0  0  0  0  0  0  0  0  0  0
   -5.0981    0.3421   -0.4408 C   0  0  0  0  0  0  0  0  0  0  0  0
   -6.0251   -0.6607   -0.4462 C   0  0  0  0  0  0  0  0  0  0  0  0
   -5.6021   -1.9603   -0.3015 C   0  0  0  0  0  0  0  0  0  0  0  0
   -4.2620   -2.2328   -0.1542 C   0  0  0  0  0  0  0  0  0  0  0  0
   -3.3560   -1.2423   -0.1498 N   0  0  0  0  0  0  0  0  0  0  0  0
   -7.4642   -0.3698   -0.6042 C   0  0  0  0  0  0  0  0  0  0  0  0
   -7.7680    0.7541   -1.5658 C   0  0  0  0  0  0  0  0  0  0  0  0
   -7.9781    0.9394   -0.0878 C   0  0  0  0  0  0  0  0  0  0  0  0
   -4.1437    2.4478    0.6351 H   0  0  0  0  0  0  0  0  0  0  0  0
   -2.6354    3.2164    0.1038 H   0  0  0  0  0  0  0  0  0  0  0  0
   -3.8516    2.7065   -1.1199 H   0  0  0  0  0  0  0  0  0  0  0  0
   -2.1856    1.0791   -1.2437 H   0  0  0  0  0  0  0  0  0  0  0  0
   -2.1201    0.8062    1.7935 H   0  0  0  0  0  0  0  0  0  0  0  0
    0.1790    0.3337    2.6158 H   0  0  0  0  0  0  0  0  0  0  0  0
    5.2830   -0.6208    3.3619 H   0  0  0  0  0  0  0  0  0  0  0  0
    7.3616   -0.8821    2.1919 H   0  0  0  0  0  0  0  0  0  0  0  0
    9.7316   -0.8368   -3.1048 H   0  0  0  0  0  0  0  0  0  0  0  0
   11.4395   -1.2983   -1.2139 H   0  0  0  0  0  0  0  0  0  0  0  0
   -5.4088    1.3774   -0.5537 H   0  0  0  0  0  0  0  0  0  0  0  0
   -6.2975   -2.7917   -0.2991 H   0  0  0  0  0  0  0  0  0  0  0  0
   -3.8824   -3.2376   -0.0374 H   0  0  0  0  0  0  0  0  0  0  0  0
   -8.1318   -1.2537   -0.5958 H   0  0  0  0  0  0  0  0  0  0  0  0
   -8.6952    0.6237   -2.1839 H   0  0  0  0  0  0  0  0  0  0  0  0
   -6.9471    1.2851   -2.0642 H   0  0  0  0  0  0  0  0  0  0  0  0
   -9.0001    0.9832    0.3309 H   0  0  0  0  0  0  0  0  0  0  0  0
   -7.2243    1.5899    0.4262 H   0  0  0  0  0  0  0  0  0  0  0  0
  1  2  1  0
  2  3  1  0
  3  4  1  0
  4  5  2  0
  4  6  1  0
  6  7  1  0
  7  8  2  0
  8  9  1  0
  9 10  2  0
 10 11  1  0
 11 12  2  0
 12 13  1  0
 13 14  2  0
 14 15  1  0
 15 16  2  0
 16 17  1  0
 12 18  1  0
 18 19  1  0
 19 20  3  0
 18 21  2  0
 21 22  1  0
  2 23  1  0
 23 24  2  0
 24 25  1  0
 25 26  2  0
 26 27  1  0
 27 28  2  0
 25 29  1  0
 29 30  1  0
 30 31  1  0
 22  7  1  0
 28 23  1  0
 31 29  1  0
 21  9  1  0
 17 13  1  0
  1 32  1  0
  1 33  1  0
  1 34  1  0
  2 35  1  6
  3 36  1  0
  6 37  1  0
 10 38  1  0
 11 39  1  0
 15 40  1  0
 16 41  1  0
 24 42  1  0
 26 43  1  0
 27 44  1  0
 29 45  1  0
 30 46  1  0
 30 47  1  0
 31 48  1  0
 31 49  1  0
M  END
$$$$
[H]c1nc([H])c2nc([H])c(C#Cc3c([H])c(C(=O)N([H])c4c([H])c([H])c(C([H])([H])N5C([H])([H])C([H])([H])N(C([H])([H])[H])C([H])([H])C5([H])[H])c(C(F)(F)F)c4[H])c([H])c([H])c3C([H])([H])[H])n2c1[H]
     RDKit          3D

 66 70  0  0  0  0  0  0  0  0999 V2000
   -9.1443   -0.5123    1.1223 C   0  0  0  0  0  0  0  0  0  0  0  0
   -8.8086    0.5075    0.1113 N   0  0  0  0  0  0  0  0  0  0  0  0
   -8.3877   -0.1949   -1.0700 C   0  0  0  0  0  0  0  0  0  0  0  0
   -7.0645   -0.7917   -0.7958 C   0  0  0  0  0  0  0  0  0  0  0  0
   -6.0831    0.2732   -0.5535 N   0  0  0  0  0  0  0  0  0  0  0  0
   -4.9200   -0.3047   -0.2005 C   0  0  0  0  0  0  0  0  0  0  0  0
   -3.7070    0.3031    0.2837 C   0  0  0  0  0  0  0  0  0  0  0  0
   -3.4260    0.8716    1.4993 C   0  0  0  0  0  0  0  0  0  0  0  0
   -2.0977    1.1665    1.9126 C   0  0  0  0  0  0  0  0  0  0  0  0
   -1.0770    0.9203    1.1803 C   0  0  0  0  0  0  0  0  0  0  0  0
    0.3530    0.9985    1.1546 N   0  0  0  0  0  0  0  0  0  0  0  0
    0.8621   -0.3921    0.9190 C   0  0  0  0  0  0  0  0  0  0  0  0
    0.1193   -1.3740    1.0438 O   0  0  0  0  0  0  0  0  0  0  0  0
    2.1967   -0.5292    0.4407 C   0  0  0  0  0  0  0  0  0  0  0  0
    2.2420   -1.1075   -0.8759 C   0  0  0  0  0  0  0  0  0  0  0  0
    3.3393   -0.9715   -1.6108 C   0  0  0  0  0  0  0  0  0  0  0  0
    4.3797   -0.2872   -1.1004 C   0  0  0  0  0  0  0  0  0  0  0  0
    5.5179    0.1055   -2.0123 C   0  0  0  0  0  0  0  0  0  0  0  0
    4.3942    0.2957    0.2087 C   0  0  0  0  0  0  0  0  0  0  0  0
    3.2572    0.1355    0.9364 C   0  0  0  0  0  0  0  0  0  0  0  0
    5.6141    0.8066    0.6086 C   0  0  0  0  0  0  0  0  0  0  0  0
    6.7593    1.0515    0.7872 C   0  0  0  0  0  0  0  0  0  0  0  0
    8.1804    1.0888    0.8015 C   0  0  0  0  0  0  0  0  0  0  0  0
    9.0758    2.0579    0.6868 C   0  0  0  0  0  0  0  0  0  0  0  0
   10.3156    1.4985    0.5292 N   0  0  0  0  0  0  0  0  0  0  0  0
   10.1956    0.1469    0.5542 C   0  0  0  0  0  0  0  0  0  0  0  0
   11.0560   -0.9361    0.4249 C   0  0  0  0  0  0  0  0  0  0  0  0
   10.5522   -2.2039    0.4632 N   0  0  0  0  0  0  0  0  0  0  0  0
    9.2847   -2.4772    0.6277 C   0  0  0  0  0  0  0  0  0  0  0  0
    8.4216   -1.3840    0.7562 C   0  0  0  0  0  0  0  0  0  0  0  0
    8.8738   -0.1198    0.7186 N   0  0  0  0  0  0  0  0  0  0  0  0
   -1.3844    0.3105   -0.1340 C   0  0  0  0  0  0  0  0  0  0  0  0
   -2.6172    0.0364   -0.5432 C   0  0  0  0  0  0  0  0  0  0  0  0
   -2.8320   -0.3863   -1.9673 C   0  0  0  0  0  0  0  0  0  0  0  0
   -3.4409   -1.5395   -2.2151 F   0  0  0  0  0  0  0  0  0  0  0  0
   -1.5558   -0.4877   -2.5629 F   0  0  0  0  0  0  0  0  0  0  0  0
   -3.4060    0.7260   -2.6535 F   0  0  0  0  0  0  0  0  0  0  0  0
   -6.5801    1.4790   -0.2180 C   0  0  0  0  0  0  0  0  0  0  0  0
   -7.8156    1.3315    0.6921 C   0  0  0  0  0  0  0  0  0  0  0  0
   -8.9791   -1.5359    0.7434 H   0  0  0  0  0  0  0  0  0  0  0  0
  -10.2070   -0.3531    1.3543 H   0  0  0  0  0  0  0  0  0  0  0  0
   -8.4982   -0.4060    2.0105 H   0  0  0  0  0  0  0  0  0  0  0  0
   -9.0888   -1.0327   -1.3378 H   0  0  0  0  0  0  0  0  0  0  0  0
   -8.2915    0.5076   -1.9468 H   0  0  0  0  0  0  0  0  0  0  0  0
   -6.6982   -1.5659   -1.4996 H   0  0  0  0  0  0  0  0  0  0  0  0
   -7.1109   -1.3140    0.2149 H   0  0  0  0  0  0  0  0  0  0  0  0
   -4.7833   -1.4185   -0.5373 H   0  0  0  0  0  0  0  0  0  0  0  0
   -5.3094   -0.7393    0.9464 H   0  0  0  0  0  0  0  0  0  0  0  0
   -4.2381    1.1097    2.1971 H   0  0  0  0  0  0  0  0  0  0  0  0
   -1.9696    1.6061    2.9368 H   0  0  0  0  0  0  0  0  0  0  0  0
    0.9594    1.7288    1.2370 H   0  0  0  0  0  0  0  0  0  0  0  0
    1.3312   -1.6375   -1.1720 H   0  0  0  0  0  0  0  0  0  0  0  0
    3.4254   -1.3918   -2.6013 H   0  0  0  0  0  0  0  0  0  0  0  0
    5.8463    1.1273   -1.6831 H   0  0  0  0  0  0  0  0  0  0  0  0
    6.3572   -0.5570   -1.9195 H   0  0  0  0  0  0  0  0  0  0  0  0
    5.1211    0.2375   -3.0219 H   0  0  0  0  0  0  0  0  0  0  0  0
    3.2408    0.5518    1.9529 H   0  0  0  0  0  0  0  0  0  0  0  0
    8.8899    3.1480    0.7202 H   0  0  0  0  0  0  0  0  0  0  0  0
   12.1062   -0.8329    0.2872 H   0  0  0  0  0  0  0  0  0  0  0  0
    8.8616   -3.4727    0.6758 H   0  0  0  0  0  0  0  0  0  0  0  0
    7.3196   -1.5580    0.8923 H   0  0  0  0  0  0  0  0  0  0  0  0
   -0.5188    0.1545   -0.7624 H   0  0  0  0  0  0  0  0  0  0  0  0
   -5.8797    2.1511    0.3340 H   0  0  0  0  0  0  0  0  0  0  0  0
   -6.9226    2.1342   -1.0841 H   0  0  0  0  0  0  0  0  0  0  0  0
   -7.4245    0.9147    1.6695 H   0  0  0  0  0  0  0  0  0  0  0  0
   -8.1809    2.3328    0.8904 H   0  0  0  0  0  0  0  0  0  0  0  0
  1  2  1  0
  2  3  1  0
  3  4  1  0
  4  5  1  0
  5  6  1  0
  6  7  1  0
  7  8  2  0
  8  9  1  0
  9 10  2  0
 10 11  1  0
 11 12  1  0
 12 13  2  0
 12 14  1  0
 14 15  2  0
 15 16  1  0
 16 17  2  0
 17 18  1  0
 17 19  1  0
 19 20  2  0
 19 21  1  0
 21 22  3  0
 22 23  1  0
 23 24  2  0
 24 25  1  0
 25 26  2  0
 26 27  1  0
 27 28  2  0
 28 29  1  0
 29 30  2  0
 30 31  1  0
 10 32  1  0
 32 33  2  0
 33 34  1  0
 34 35  1  0
 34 36  1  0
 34 37  1  0
  5 38  1  0
 38 39  1  0
 39  2  1  0
 33  7  1  0
 20 14  1  0
 31 23  1  0
 31 26  1  0
  1 40  1  0
  1 41  1  0
  1 42  1  0
  3 43  1  0
  3 44  1  0
  4 45  1  0
  4 46  1  0
  6 47  1  0
  6 48  1  0
  8 49  1  0
  9 50  1  0
 11 51  1  0
 15 52  1  0
 16 53  1  0
 18 54  1  0
 18 55  1  0
 18 56  1  0
 20 57  1  0
 24 58  1  0
 27 59  1  0
 29 60  1  0
 30 61  1  0
 32 62  1  0
 38 63  1  0
 38 64  1  0
 39 65  1  0
 39 66  1  0
M  END
$$$$
[H]OB(O[H])[C@@]([H])(N([H])C(=O)[C@@]([H])(N([H])C(=O)[C@@]([H])(N([H])C(=O)[C@@]([H])(N([H])C(=O)C([H])([H])[H])C([H])([H])C([H])(C([H])([H])[H])C([H])([H])[H])C([H])([H])c1c([H])c([H])c([H])c([H])c1[H])C([H])([H])C([H])(C([H])([H])[H])C([H])([H])[H])C([H])([H])C([H])(C([H])([H])[H])C([H])([H])C([H])([H])C([H])([H])C([H])([H])[H]
     RDKit          3D

 95 95  0  0  0  0  0  0  0  0999 V2000
    7.3249    2.3321   -4.7315 C   0  0  0  0  0  0  0  0  0  0  0  0
    6.4756    2.0065   -3.4999 C   0  0  0  0  0  0  0  0  0  0  0  0
    6.1461    0.5510   -3.4341 C   0  0  0  0  0  0  0  0  0  0  0  0
    5.3072    0.2199   -2.2529 C   0  0  0  0  0  0  0  0  0  0  0  0
    5.9135    0.5245   -0.9140 C   0  0  0  0  0  0  0  0  0  0  0  0
    7.1880   -0.1777   -0.6112 C   0  0  0  0  0  0  0  0  0  0  0  0
    4.8554    0.4168    0.1251 C   0  0  0  0  0  0  0  0  0  0  0  0
    4.2189   -0.9289    0.1930 C   0  0  2  0  0  0  0  0  0  0  0  0
    3.1715   -0.9042    1.2328 N   0  0  0  0  0  0  0  0  0  0  0  0
    1.8292   -1.3539    0.9607 C   0  0  0  0  0  0  0  0  0  0  0  0
    1.6428   -1.7672   -0.2026 O   0  0  0  0  0  0  0  0  0  0  0  0
    0.7978   -1.3006    2.0233 C   0  0  2  0  0  0  0  0  0  0  0  0
    1.2720   -1.9245    3.3044 C   0  0  0  0  0  0  0  0  0  0  0  0
    0.2465   -1.8854    4.3999 C   0  0  0  0  0  0  0  0  0  0  0  0
   -0.1831   -0.4832    4.7750 C   0  0  0  0  0  0  0  0  0  0  0  0
    0.9028   -2.4680    5.6538 C   0  0  0  0  0  0  0  0  0  0  0  0
   -0.4683   -1.8068    1.5827 N   0  0  0  0  0  0  0  0  0  0  0  0
   -1.5229   -0.9894    1.1132 C   0  0  0  0  0  0  0  0  0  0  0  0
   -1.2449    0.2623    1.0679 O   0  0  0  0  0  0  0  0  0  0  0  0
   -2.8597   -1.4022    0.6935 C   0  0  2  0  0  0  0  0  0  0  0  0
   -3.0149   -2.6102   -0.1288 C   0  0  0  0  0  0  0  0  0  0  0  0
   -2.3963   -2.6868   -1.4338 C   0  0  0  0  0  0  0  0  0  0  0  0
   -3.0607   -2.1682   -2.5268 C   0  0  0  0  0  0  0  0  0  0  0  0
   -2.5379   -2.2486   -3.8005 C   0  0  0  0  0  0  0  0  0  0  0  0
   -1.3255   -2.8546   -4.0194 C   0  0  0  0  0  0  0  0  0  0  0  0
   -0.6547   -3.3749   -2.9333 C   0  0  0  0  0  0  0  0  0  0  0  0
   -1.1858   -3.2912   -1.6543 C   0  0  0  0  0  0  0  0  0  0  0  0
   -3.5965   -0.2510    0.1782 N   0  0  0  0  0  0  0  0  0  0  0  0
   -4.6227    0.3710    0.8816 C   0  0  0  0  0  0  0  0  0  0  0  0
   -4.9728   -0.0324    2.0070 O   0  0  0  0  0  0  0  0  0  0  0  0
   -5.3268    1.5433    0.2955 C   0  0  2  0  0  0  0  0  0  0  0  0
   -4.3605    2.6496   -0.0481 C   0  0  0  0  0  0  0  0  0  0  0  0
   -5.1327    3.8053   -0.6401 C   0  0  0  0  0  0  0  0  0  0  0  0
   -4.0694    4.8765   -0.9472 C   0  0  0  0  0  0  0  0  0  0  0  0
   -5.6268    3.3598   -2.0194 C   0  0  0  0  0  0  0  0  0  0  0  0
   -6.3463    2.0453    1.1887 N   0  0  0  0  0  0  0  0  0  0  0  0
   -7.7398    2.0159    0.9249 C   0  0  0  0  0  0  0  0  0  0  0  0
   -8.7145    2.5674    1.9225 C   0  0  0  0  0  0  0  0  0  0  0  0
   -8.1314    1.5208   -0.1553 O   0  0  0  0  0  0  0  0  0  0  0  0
    5.3354   -1.9841    0.6600 B   0  0  0  0  0  0  0  0  0  0  0  0
    5.2537   -3.3207    0.0803 O   0  0  0  0  0  0  0  0  0  0  0  0
    5.7055   -1.9120    2.0896 O   0  0  0  0  0  0  0  0  0  0  0  0
    6.7234    2.8240   -5.5194 H   0  0  0  0  0  0  0  0  0  0  0  0
    7.7874    1.3755   -5.0458 H   0  0  0  0  0  0  0  0  0  0  0  0
    8.1840    2.9832   -4.4221 H   0  0  0  0  0  0  0  0  0  0  0  0
    7.0398    2.3505   -2.6061 H   0  0  0  0  0  0  0  0  0  0  0  0
    5.5592    2.6124   -3.5815 H   0  0  0  0  0  0  0  0  0  0  0  0
    7.0483   -0.0963   -3.4223 H   0  0  0  0  0  0  0  0  0  0  0  0
    5.5366    0.2832   -4.3432 H   0  0  0  0  0  0  0  0  0  0  0  0
    4.8914   -0.8302   -2.3084 H   0  0  0  0  0  0  0  0  0  0  0  0
    4.3875    0.8762   -2.3185 H   0  0  0  0  0  0  0  0  0  0  0  0
    6.1878    1.6320   -0.9774 H   0  0  0  0  0  0  0  0  0  0  0  0
    8.0603    0.3983   -1.0289 H   0  0  0  0  0  0  0  0  0  0  0  0
    7.3004   -1.1869   -1.0461 H   0  0  0  0  0  0  0  0  0  0  0  0
    7.3637   -0.1621    0.4830 H   0  0  0  0  0  0  0  0  0  0  0  0
    4.1177    1.2432   -0.0094 H   0  0  0  0  0  0  0  0  0  0  0  0
    5.3570    0.6816    1.1090 H   0  0  0  0  0  0  0  0  0  0  0  0
    3.7263   -1.2700   -0.7135 H   0  0  0  0  0  0  0  0  0  0  0  0
    3.3927   -0.5606    2.1747 H   0  0  0  0  0  0  0  0  0  0  0  0
    0.6079   -0.1849    2.2058 H   0  0  0  0  0  0  0  0  0  0  0  0
    1.5581   -2.9877    3.1718 H   0  0  0  0  0  0  0  0  0  0  0  0
    2.1816   -1.4284    3.7058 H   0  0  0  0  0  0  0  0  0  0  0  0
   -0.6622   -2.4683    4.1654 H   0  0  0  0  0  0  0  0  0  0  0  0
   -0.9328   -0.6158    5.6069 H   0  0  0  0  0  0  0  0  0  0  0  0
   -0.7020    0.0551    3.9778 H   0  0  0  0  0  0  0  0  0  0  0  0
    0.6619    0.0982    5.2352 H   0  0  0  0  0  0  0  0  0  0  0  0
    1.5822   -3.2708    5.2968 H   0  0  0  0  0  0  0  0  0  0  0  0
    1.5007   -1.6948    6.1786 H   0  0  0  0  0  0  0  0  0  0  0  0
    0.1125   -2.9080    6.2694 H   0  0  0  0  0  0  0  0  0  0  0  0
   -0.6233   -2.8428    1.6085 H   0  0  0  0  0  0  0  0  0  0  0  0
   -3.4003   -1.5998    1.7020 H   0  0  0  0  0  0  0  0  0  0  0  0
   -2.6264   -3.4784    0.5114 H   0  0  0  0  0  0  0  0  0  0  0  0
   -4.1281   -2.8658   -0.1625 H   0  0  0  0  0  0  0  0  0  0  0  0
   -4.0341   -1.6707   -2.4212 H   0  0  0  0  0  0  0  0  0  0  0  0
   -3.0875   -1.8314   -4.6336 H   0  0  0  0  0  0  0  0  0  0  0  0
   -0.9082   -2.9195   -5.0339 H   0  0  0  0  0  0  0  0  0  0  0  0
    0.2985   -3.8499   -3.1201 H   0  0  0  0  0  0  0  0  0  0  0  0
   -0.5878   -3.7281   -0.8596 H   0  0  0  0  0  0  0  0  0  0  0  0
   -3.3188    0.0964   -0.7591 H   0  0  0  0  0  0  0  0  0  0  0  0
   -5.7890    1.1873   -0.6386 H   0  0  0  0  0  0  0  0  0  0  0  0
   -3.6799    2.3028   -0.8689 H   0  0  0  0  0  0  0  0  0  0  0  0
   -3.6935    2.9375    0.7828 H   0  0  0  0  0  0  0  0  0  0  0  0
   -5.9266    4.1841    0.0020 H   0  0  0  0  0  0  0  0  0  0  0  0
   -3.8964    5.5207   -0.0714 H   0  0  0  0  0  0  0  0  0  0  0  0
   -3.1019    4.3683   -1.1930 H   0  0  0  0  0  0  0  0  0  0  0  0
   -4.3446    5.4248   -1.8674 H   0  0  0  0  0  0  0  0  0  0  0  0
   -5.2637    2.3424   -2.2771 H   0  0  0  0  0  0  0  0  0  0  0  0
   -5.3074    4.0382   -2.8262 H   0  0  0  0  0  0  0  0  0  0  0  0
   -6.7437    3.3065   -2.0170 H   0  0  0  0  0  0  0  0  0  0  0  0
   -6.0280    2.4571    2.0904 H   0  0  0  0  0  0  0  0  0  0  0  0
   -8.2107    2.8685    2.8508 H   0  0  0  0  0  0  0  0  0  0  0  0
   -9.4919    1.7954    2.0650 H   0  0  0  0  0  0  0  0  0  0  0  0
   -9.2025    3.4715    1.4924 H   0  0  0  0  0  0  0  0  0  0  0  0
    4.4943   -3.4325   -0.5440 H   0  0  0  0  0  0  0  0  0  0  0  0
    5.5383   -2.7725    2.5500 H   0  0  0  0  0  0  0  0  0  0  0  0
  1  2  1  0
  2  3  1  0
  3  4  1  0
  4  5  1  0
  5  6  1  0
  5  7  1  0
  7  8  1  0
  8  9  1  0
  9 10  1  0
 10 11  2  0
 10 12  1  0
 12 13  1  0
 13 14  1  0
 14 15  1  0
 14 16  1  0
 12 17  1  0
 17 18  1  0
 18 19  2  0
 18 20  1  0
 20 21  1  0
 21 22  1  0
 22 23  2  0
 23 24  1  0
 24 25  2  0
 25 26  1  0
 26 27  2  0
 20 28  1  0
 28 29  1  0
 29 30  2  0
 29 31  1  0
 31 32  1  0
 32 33  1  0
 33 34  1  0
 33 35  1  0
 31 36  1  0
 36 37  1  0
 37 38  1  0
 37 39  2  0
  8 40  1  0
 40 41  1  0
 40 42  1  0
 27 22  1  0
  1 43  1  0
  1 44  1  0
  1 45  1  0
  2 46  1  0
  2 47  1  0
  3 48  1  0
  3 49  1  0
  4 50  1  0
  4 51  1  0
  5 52  1  0
  6 53  1  0
  6 54  1  0
  6 55  1  0
  7 56  1  0
  7 57  1  0
  8 58  1  6
  9 59  1  0
 12 60  1  1
 13 61  1  0
 13 62  1  0
 14 63  1  0
 15 64  1  0
 15 65  1  0
 15 66  1  0
 16 67  1  0
 16 68  1  0
 16 69  1  0
 17 70  1  0
 20 71  1  1
 21 72  1  0
 21 73  1  0
 23 74  1  0
 24 75  1  0
 25 76  1  0
 26 77  1  0
 27 78  1  0
 28 79  1  0
 31 80  1  6
 32 81  1  0
 32 82  1  0
 33 83  1  0
 34 84  1  0
 34 85  1  0
 34 86  1  0
 35 87  1  0
 35 88  1  0
 35 89  1  0
 36 90  1  0
 38 91  1  0
 38 92  1  0
 38 93  1  0
 41 94  1  0
 42 95  1  0
M  END
$$$$
[H]Oc1c([H])c([H])c(C([H])([H])[C@@]([H])(C(=O)N([H])[C@@]([H])(C(=O)N([H])C([H])(C([H])([H])[H])C([H])([H])[H])C([H])([H])C([H])(C([H])([H])[H])C([H])([H])[H])N([H])C(=O)C([H])([H])C([H])([H])c2nc(-c3c([H])c([H])c(F)c([H])c3[H])sc2[H])c([H])c1[H]
     RDKit          3D

 77 79  0  0  0  0  0  0  0  0999 V2000
   -7.8856   -1.6367    2.0420 C   0  0  0  0  0  0  0  0  0  0  0  0
   -6.5045   -1.1643    2.3533 C   0  0  0  0  0  0  0  0  0  0  0  0
   -6.1377   -1.6196    3.7562 C   0  0  0  0  0  0  0  0  0  0  0  0
   -5.5198   -1.5425    1.3734 N   0  0  0  0  0  0  0  0  0  0  0  0
   -4.7769   -0.5725    0.6600 C   0  0  0  0  0  0  0  0  0  0  0  0
   -5.0334    0.6538    0.9351 O   0  0  0  0  0  0  0  0  0  0  0  0
   -3.7448   -0.8438   -0.3515 C   0  0  1  0  0  0  0  0  0  0  0  0
   -4.2014   -0.6919   -1.7533 C   0  0  0  0  0  0  0  0  0  0  0  0
   -5.3019   -1.5145   -2.2755 C   0  0  0  0  0  0  0  0  0  0  0  0
   -6.6391   -1.3935   -1.6481 C   0  0  0  0  0  0  0  0  0  0  0  0
   -5.4494   -1.1431   -3.7674 C   0  0  0  0  0  0  0  0  0  0  0  0
   -2.7252    0.2339   -0.1762 N   0  0  0  0  0  0  0  0  0  0  0  0
   -1.3662   -0.0836    0.0229 C   0  0  0  0  0  0  0  0  0  0  0  0
   -1.0301   -1.2777    0.0520 O   0  0  0  0  0  0  0  0  0  0  0  0
   -0.3805    1.0035    0.1889 C   0  0  2  0  0  0  0  0  0  0  0  0
   -0.6298    2.1650   -0.7436 C   0  0  0  0  0  0  0  0  0  0  0  0
    0.4091    3.2371   -0.5292 C   0  0  0  0  0  0  0  0  0  0  0  0
    0.1863    4.2047    0.4257 C   0  0  0  0  0  0  0  0  0  0  0  0
    1.0806    5.2249    0.6862 C   0  0  0  0  0  0  0  0  0  0  0  0
    2.2446    5.2770   -0.0398 C   0  0  0  0  0  0  0  0  0  0  0  0
    3.1452    6.2998    0.2186 O   0  0  0  0  0  0  0  0  0  0  0  0
    2.4765    4.3116   -0.9993 C   0  0  0  0  0  0  0  0  0  0  0  0
    1.5755    3.2961   -1.2517 C   0  0  0  0  0  0  0  0  0  0  0  0
    0.9842    0.5886    0.2735 N   0  0  0  0  0  0  0  0  0  0  0  0
    1.6683   -0.2426   -0.6261 C   0  0  0  0  0  0  0  0  0  0  0  0
    1.0833   -0.7011   -1.6276 O   0  0  0  0  0  0  0  0  0  0  0  0
    3.0928   -0.6011   -0.4233 C   0  0  0  0  0  0  0  0  0  0  0  0
    3.5554   -1.5837   -1.4732 C   0  0  0  0  0  0  0  0  0  0  0  0
    5.0207   -1.9247   -1.2742 C   0  0  0  0  0  0  0  0  0  0  0  0
    5.6463   -2.8097   -2.1281 C   0  0  0  0  0  0  0  0  0  0  0  0
    7.2333   -2.8234   -1.5005 S   0  0  0  0  0  0  0  0  0  0  0  0
    7.0043   -1.7077   -0.1959 C   0  0  0  0  0  0  0  0  0  0  0  0
    5.7340   -1.4061   -0.3342 N   0  0  0  0  0  0  0  0  0  0  0  0
    7.9959   -1.2367    0.7756 C   0  0  0  0  0  0  0  0  0  0  0  0
    9.2962   -1.6603    0.6879 C   0  0  0  0  0  0  0  0  0  0  0  0
   10.2660   -1.2437    1.5839 C   0  0  0  0  0  0  0  0  0  0  0  0
    9.9380   -0.3736    2.6082 C   0  0  0  0  0  0  0  0  0  0  0  0
   10.8844    0.0490    3.5010 F   0  0  0  0  0  0  0  0  0  0  0  0
    8.6271    0.0455    2.6864 C   0  0  0  0  0  0  0  0  0  0  0  0
    7.6579   -0.3866    1.7700 C   0  0  0  0  0  0  0  0  0  0  0  0
   -8.2667   -2.2788    2.8810 H   0  0  0  0  0  0  0  0  0  0  0  0
   -8.5896   -0.7676    2.0225 H   0  0  0  0  0  0  0  0  0  0  0  0
   -8.0088   -2.1313    1.0656 H   0  0  0  0  0  0  0  0  0  0  0  0
   -6.5383   -0.0364    2.4272 H   0  0  0  0  0  0  0  0  0  0  0  0
   -7.1088   -1.6520    4.3329 H   0  0  0  0  0  0  0  0  0  0  0  0
   -5.7424   -2.6339    3.7377 H   0  0  0  0  0  0  0  0  0  0  0  0
   -5.5036   -0.8821    4.2819 H   0  0  0  0  0  0  0  0  0  0  0  0
   -5.3413   -2.5499    1.1753 H   0  0  0  0  0  0  0  0  0  0  0  0
   -3.1759   -1.7833   -0.1736 H   0  0  0  0  0  0  0  0  0  0  0  0
   -4.4591    0.4014   -1.9539 H   0  0  0  0  0  0  0  0  0  0  0  0
   -3.3269   -0.8402   -2.4699 H   0  0  0  0  0  0  0  0  0  0  0  0
   -5.0459   -2.6152   -2.3134 H   0  0  0  0  0  0  0  0  0  0  0  0
   -7.4054   -1.3197   -2.4920 H   0  0  0  0  0  0  0  0  0  0  0  0
   -6.9822   -2.3000   -1.1031 H   0  0  0  0  0  0  0  0  0  0  0  0
   -6.7971   -0.4447   -1.0970 H   0  0  0  0  0  0  0  0  0  0  0  0
   -4.5024   -0.8010   -4.1897 H   0  0  0  0  0  0  0  0  0  0  0  0
   -6.1637   -0.2927   -3.7817 H   0  0  0  0  0  0  0  0  0  0  0  0
   -5.9306   -1.9702   -4.3206 H   0  0  0  0  0  0  0  0  0  0  0  0
   -3.0765    1.2077   -0.2087 H   0  0  0  0  0  0  0  0  0  0  0  0
   -0.6596    1.4296    1.2233 H   0  0  0  0  0  0  0  0  0  0  0  0
   -1.6441    2.5817   -0.5090 H   0  0  0  0  0  0  0  0  0  0  0  0
   -0.6022    1.9151   -1.8050 H   0  0  0  0  0  0  0  0  0  0  0  0
   -0.7317    4.1876    1.0179 H   0  0  0  0  0  0  0  0  0  0  0  0
    0.8402    5.9509    1.4503 H   0  0  0  0  0  0  0  0  0  0  0  0
    4.0083    6.3330   -0.3249 H   0  0  0  0  0  0  0  0  0  0  0  0
    3.4102    4.3781   -1.5615 H   0  0  0  0  0  0  0  0  0  0  0  0
    1.7783    2.5569   -2.0082 H   0  0  0  0  0  0  0  0  0  0  0  0
    1.5741    0.9344    1.0999 H   0  0  0  0  0  0  0  0  0  0  0  0
    3.7330    0.3244   -0.4956 H   0  0  0  0  0  0  0  0  0  0  0  0
    3.3033   -1.0341    0.5826 H   0  0  0  0  0  0  0  0  0  0  0  0
    3.3801   -1.1533   -2.4575 H   0  0  0  0  0  0  0  0  0  0  0  0
    3.0184   -2.5353   -1.2772 H   0  0  0  0  0  0  0  0  0  0  0  0
    5.1915   -3.3443   -2.9812 H   0  0  0  0  0  0  0  0  0  0  0  0
    9.5840   -2.3441   -0.1102 H   0  0  0  0  0  0  0  0  0  0  0  0
   11.2924   -1.5699    1.5247 H   0  0  0  0  0  0  0  0  0  0  0  0
    8.3742    0.7259    3.4870 H   0  0  0  0  0  0  0  0  0  0  0  0
    6.6350   -0.0526    1.8420 H   0  0  0  0  0  0  0  0  0  0  0  0
  1  2  1  0
  2  3  1  0
  2  4  1  0
  4  5  1  0
  5  6  2  0
  5  7  1  0
  7  8  1  0
  8  9  1  0
  9 10  1  0
  9 11  1  0
  7 12  1  0
 12 13  1  0
 13 14  2  0
 13 15  1  0
 15 16  1  0
 16 17  1  0
 17 18  2  0
 18 19  1  0
 19 20  2  0
 20 21  1  0
 20 22  1  0
 22 23  2  0
 15 24  1  0
 24 25  1  0
 25 26  2  0
 25 27  1  0
 27 28  1  0
 28 29  1  0
 29 30  2  0
 30 31  1  0
 31 32  1  0
 32 33  2  0
 32 34  1  0
 34 35  2  0
 35 36  1  0
 36 37  2  0
 37 38  1  0
 37 39  1  0
 39 40  2  0
 23 17  1  0
 33 29  1  0
 40 34  1  0
  1 41  1  0
  1 42  1  0
  1 43  1  0
  2 44  1  0
  3 45  1  0
  3 46  1  0
  3 47  1  0
  4 48  1  0
  7 49  1  6
  8 50  1  0
  8 51  1  0
  9 52  1  0
 10 53  1  0
 10 54  1  0
 10 55  1  0
 11 56  1  0
 11 57  1  0
 11 58  1  0
 12 59  1  0
 15 60  1  1
 16 61  1  0
 16 62  1  0
 18 63  1  0
 19 64  1  0
 21 65  1  0
 22 66  1  0
 23 67  1  0
 24 68  1  0
 27 69  1  0
 27 70  1  0
 28 71  1  0
 28 72  1  0
 30 73  1  0
 35 74  1  0
 36 75  1  0
 39 76  1  0
 40 77  1  0
M  END
$$$$
[H]c1nc(OC(C([H])([H])[H])(C([H])([H])[H])C([H])([H])[H])nc(Cl)c1N([H])C(=O)N([H])[C@]1([H])C([H])([H])C([H])([H])[C@@]([H])(Oc2c([H])c([H])c(C(=O)OC([H])([H])[H])c([H])c2[H])C([H])([H])C1([H])[H]
     RDKit          3D

 62 64  0  0  0  0  0  0  0  0999 V2000
   10.3892   -3.5530    0.4895 C   0  0  0  0  0  0  0  0  0  0  0  0
    9.1558   -2.8538    0.5061 O   0  0  0  0  0  0  0  0  0  0  0  0
    9.0332   -1.4907    0.5788 C   0  0  0  0  0  0  0  0  0  0  0  0
   10.0642   -0.7944    0.6352 O   0  0  0  0  0  0  0  0  0  0  0  0
    7.7091   -0.8846    0.5889 C   0  0  0  0  0  0  0  0  0  0  0  0
    6.5490   -1.6203    0.5267 C   0  0  0  0  0  0  0  0  0  0  0  0
    5.3145   -1.0241    0.5387 C   0  0  0  0  0  0  0  0  0  0  0  0
    5.1539    0.3732    0.6149 C   0  0  0  0  0  0  0  0  0  0  0  0
    3.9108    0.9275    0.6244 O   0  0  0  0  0  0  0  0  0  0  0  0
    3.5602    2.2683    0.6946 C   0  0  1  0  0  0  0  0  0  0  0  0
    2.8309    2.6049   -0.6021 C   0  0  0  0  0  0  0  0  0  0  0  0
    1.7760    1.5444   -0.7998 C   0  0  0  0  0  0  0  0  0  0  0  0
    0.8614    1.5306    0.3784 C   0  0  1  0  0  0  0  0  0  0  0  0
    1.1911    2.5763    1.4275 C   0  0  0  0  0  0  0  0  0  0  0  0
    2.6307    2.4722    1.8807 C   0  0  0  0  0  0  0  0  0  0  0  0
   -0.4703    1.8255   -0.0828 N   0  0  0  0  0  0  0  0  0  0  0  0
   -1.5038    0.8335    0.0782 C   0  0  0  0  0  0  0  0  0  0  0  0
   -1.1417   -0.2328    0.6234 O   0  0  0  0  0  0  0  0  0  0  0  0
   -2.7980    1.1294   -0.3747 N   0  0  0  0  0  0  0  0  0  0  0  0
   -3.9032    0.3040   -0.3033 C   0  0  0  0  0  0  0  0  0  0  0  0
   -3.8993   -0.9474    0.2318 C   0  0  0  0  0  0  0  0  0  0  0  0
   -5.0449   -1.6993    0.2609 N   0  0  0  0  0  0  0  0  0  0  0  0
   -6.2099   -1.2568   -0.2248 C   0  0  0  0  0  0  0  0  0  0  0  0
   -7.3658   -2.0531   -0.1796 O   0  0  0  0  0  0  0  0  0  0  0  0
   -8.5978   -1.6307   -0.6743 C   0  0  0  0  0  0  0  0  0  0  0  0
   -8.5609   -1.3043   -2.1522 C   0  0  0  0  0  0  0  0  0  0  0  0
   -8.9909   -0.3669    0.0608 C   0  0  0  0  0  0  0  0  0  0  0  0
   -9.6104   -2.7353   -0.4503 C   0  0  0  0  0  0  0  0  0  0  0  0
   -6.2347   -0.0255   -0.7566 N   0  0  0  0  0  0  0  0  0  0  0  0
   -5.1337    0.7421   -0.8036 C   0  0  0  0  0  0  0  0  0  0  0  0
   -5.1747    2.3573   -1.5029 Cl  0  0  0  0  0  0  0  0  0  0  0  0
    6.3146    1.1071    0.6769 C   0  0  0  0  0  0  0  0  0  0  0  0
    7.5672    0.4783    0.6634 C   0  0  0  0  0  0  0  0  0  0  0  0
   11.1122   -2.9600   -0.0966 H   0  0  0  0  0  0  0  0  0  0  0  0
   10.8003   -3.7203    1.4874 H   0  0  0  0  0  0  0  0  0  0  0  0
   10.2770   -4.5409    0.0036 H   0  0  0  0  0  0  0  0  0  0  0  0
    6.6107   -2.6993    0.4668 H   0  0  0  0  0  0  0  0  0  0  0  0
    4.3864   -1.5949    0.4900 H   0  0  0  0  0  0  0  0  0  0  0  0
    4.4401    2.9204    0.7486 H   0  0  0  0  0  0  0  0  0  0  0  0
    3.5732    2.5828   -1.4250 H   0  0  0  0  0  0  0  0  0  0  0  0
    2.3984    3.6291   -0.5069 H   0  0  0  0  0  0  0  0  0  0  0  0
    2.3195    0.5771   -0.8587 H   0  0  0  0  0  0  0  0  0  0  0  0
    1.2219    1.7435   -1.7410 H   0  0  0  0  0  0  0  0  0  0  0  0
    0.8711    0.5075    0.8225 H   0  0  0  0  0  0  0  0  0  0  0  0
    1.0003    3.5889    1.0759 H   0  0  0  0  0  0  0  0  0  0  0  0
    0.5524    2.3793    2.3116 H   0  0  0  0  0  0  0  0  0  0  0  0
    2.7032    1.6902    2.6341 H   0  0  0  0  0  0  0  0  0  0  0  0
    2.9002    3.4454    2.3389 H   0  0  0  0  0  0  0  0  0  0  0  0
   -0.7170    2.7162   -0.5237 H   0  0  0  0  0  0  0  0  0  0  0  0
   -2.9209    2.1073   -0.8213 H   0  0  0  0  0  0  0  0  0  0  0  0
   -3.0320   -1.4268    0.6577 H   0  0  0  0  0  0  0  0  0  0  0  0
   -9.5636   -1.5474   -2.5617 H   0  0  0  0  0  0  0  0  0  0  0  0
   -7.8221   -1.8913   -2.7051 H   0  0  0  0  0  0  0  0  0  0  0  0
   -8.4382   -0.2030   -2.2999 H   0  0  0  0  0  0  0  0  0  0  0  0
  -10.0805   -0.3734    0.2314 H   0  0  0  0  0  0  0  0  0  0  0  0
   -8.7647    0.5114   -0.5702 H   0  0  0  0  0  0  0  0  0  0  0  0
   -8.3995   -0.2612    0.9861 H   0  0  0  0  0  0  0  0  0  0  0  0
   -9.0626   -3.6892   -0.4188 H   0  0  0  0  0  0  0  0  0  0  0  0
  -10.3337   -2.7924   -1.2958 H   0  0  0  0  0  0  0  0  0  0  0  0
  -10.1114   -2.6022    0.5245 H   0  0  0  0  0  0  0  0  0  0  0  0
    6.2623    2.1947    0.7375 H   0  0  0  0  0  0  0  0  0  0  0  0
    8.4453    1.1068    0.7146 H   0  0  0  0  0  0  0  0  0  0  0  0
  1  2  1  0
  2  3  1  0
  3  4  2  0
  3  5  1  0
  5  6  2  0
  6  7  1  0
  7  8  2  0
  8  9  1  0
  9 10  1  0
 10 11  1  0
 11 12  1  0
 12 13  1  0
 13 14  1  0
 14 15  1  0
 13 16  1  0
 16 17  1  0
 17 18  2  0
 17 19  1  0
 19 20  1  0
 20 21  2  0
 21 22  1  0
 22 23  2  0
 23 24  1  0
 24 25  1  0
 25 26  1  0
 25 27  1  0
 25 28  1  0
 23 29  1  0
 29 30  2  0
 30 31  1  0
  8 32  1  0
 32 33  2  0
 33  5  1  0
 15 10  1  0
 30 20  1  0
  1 34  1  0
  1 35  1  0
  1 36  1  0
  6 37  1  0
  7 38  1  0
 10 39  1  1
 11 40  1  0
 11 41  1  0
 12 42  1  0
 12 43  1  0
 13 44  1  1
 14 45  1  0
 14 46  1  0
 15 47  1  0
 15 48  1  0
 16 49  1  0
 19 50  1  0
 21 51  1  0
 26 52  1  0
 26 53  1  0
 26 54  1  0
 27 55  1  0
 27 56  1  0
 27 57  1  0
 28 58  1  0
 28 59  1  0
 28 60  1  0
 32 61  1  0
 33 62  1  0
M  END
$$$$
[H]c1c([H])c([H])c2c(c1[H])C(=O)N(S(=O)(=O)c1c([H])c([H])c(Br)c([H])c1[H])C2=O
     RDKit          3D

 29 31  0  0  0  0  0  0  0  0999 V2000
    5.6258    2.8270   -1.1091 Br  0  0  0  0  0  0  0  0  0  0  0  0
    4.3327    1.5911   -0.4644 C   0  0  0  0  0  0  0  0  0  0  0  0
    3.9802    0.5153   -1.2346 C   0  0  0  0  0  0  0  0  0  0  0  0
    3.0443   -0.3979   -0.7920 C   0  0  0  0  0  0  0  0  0  0  0  0
    2.4199   -0.2677    0.4501 C   0  0  0  0  0  0  0  0  0  0  0  0
    2.7901    0.8211    1.2063 C   0  0  0  0  0  0  0  0  0  0  0  0
    3.7261    1.7367    0.7663 C   0  0  0  0  0  0  0  0  0  0  0  0
    1.2348   -1.4354    0.9963 S   0  0  0  0  0  0  0  0  0  0  0  0
    1.2938   -1.5333    2.4930 O   0  0  0  0  0  0  0  0  0  0  0  0
    1.6104   -2.7595    0.3455 O   0  0  0  0  0  0  0  0  0  0  0  0
   -0.3603   -0.9733    0.5047 N   0  0  0  0  0  0  0  0  0  0  0  0
   -1.5745   -1.2919    1.1854 C   0  0  0  0  0  0  0  0  0  0  0  0
   -1.6559   -1.9577    2.2452 O   0  0  0  0  0  0  0  0  0  0  0  0
   -2.6948   -0.7279    0.4636 C   0  0  0  0  0  0  0  0  0  0  0  0
   -4.0804   -0.7086    0.6382 C   0  0  0  0  0  0  0  0  0  0  0  0
   -4.9147   -0.0615   -0.2563 C   0  0  0  0  0  0  0  0  0  0  0  0
   -4.3767    0.5769   -1.3403 C   0  0  0  0  0  0  0  0  0  0  0  0
   -3.0304    0.5819   -1.5474 C   0  0  0  0  0  0  0  0  0  0  0  0
   -2.1887   -0.0718   -0.6435 C   0  0  0  0  0  0  0  0  0  0  0  0
   -0.7353   -0.2177   -0.6288 C   0  0  0  0  0  0  0  0  0  0  0  0
    0.0878    0.2503   -1.4868 O   0  0  0  0  0  0  0  0  0  0  0  0
    4.4652    0.4008   -2.2166 H   0  0  0  0  0  0  0  0  0  0  0  0
    2.7534   -1.2508   -1.3829 H   0  0  0  0  0  0  0  0  0  0  0  0
    2.3109    0.9355    2.1779 H   0  0  0  0  0  0  0  0  0  0  0  0
    4.0050    2.5801    1.3657 H   0  0  0  0  0  0  0  0  0  0  0  0
   -4.4659   -1.2241    1.5065 H   0  0  0  0  0  0  0  0  0  0  0  0
   -5.9848   -0.0802   -0.0684 H   0  0  0  0  0  0  0  0  0  0  0  0
   -5.0444    1.0747   -2.0247 H   0  0  0  0  0  0  0  0  0  0  0  0
   -2.5737    1.0680   -2.3799 H   0  0  0  0  0  0  0  0  0  0  0  0
  1  2  1  0
  2  3  2  0
  3  4  1  0
  4  5  2  0
  5  6  1  0
  6  7  2  0
  5  8  1  0
  8  9  2  0
  8 10  2  0
  8 11  1  0
 11 12  1  0
 12 13  2  0
 12 14  1  0
 14 15  2  0
 15 16  1  0
 16 17  2  0
 17 18  1  0
 18 19  2  0
 19 20  1  0
 20 21  2  0
  7  2  1  0
 20 11  1  0
 19 14  1  0
  3 22  1  0
  4 23  1  0
  6 24  1  0
  7 25  1  0
 15 26  1  0
 16 27  1  0
 17 28  1  0
 18 29  1  0
M  END
$$$$
[H]c1c([H])c2c(c([H])c1-c1noc(C([H])([H])[H])c1C([H])([H])N([H])C(=O)OC(C([H])([H])[H])(C([H])([H])[H])C([H])([H])[H])C(=O)OC([H])([H])C(=O)N2[H]
     RDKit          3D

 49 51  0  0  0  0  0  0  0  0999 V2000
   -1.7776   -0.8694   -3.7204 C   0  0  0  0  0  0  0  0  0  0  0  0
   -0.5825   -0.3068   -3.0495 C   0  0  0  0  0  0  0  0  0  0  0  0
    0.2563    0.4796   -3.6552 O   0  0  0  0  0  0  0  0  0  0  0  0
    1.2040    0.8579   -2.9055 N   0  0  0  0  0  0  0  0  0  0  0  0
    1.0436    0.2898   -1.6452 C   0  0  0  0  0  0  0  0  0  0  0  0
   -0.1148   -0.4494   -1.7729 C   0  0  0  0  0  0  0  0  0  0  0  0
   -0.5900   -1.4121   -0.7467 C   0  0  0  0  0  0  0  0  0  0  0  0
   -1.0956   -0.5821    0.4296 N   0  0  0  0  0  0  0  0  0  0  0  0
   -2.5256   -0.4255    0.4325 C   0  0  0  0  0  0  0  0  0  0  0  0
   -3.1719   -1.0489   -0.5285 O   0  0  0  0  0  0  0  0  0  0  0  0
   -3.3569    0.2608    1.2565 O   0  0  0  0  0  0  0  0  0  0  0  0
   -4.7840    0.2400    1.0309 C   0  0  0  0  0  0  0  0  0  0  0  0
   -5.1368    0.7346   -0.3478 C   0  0  0  0  0  0  0  0  0  0  0  0
   -5.3720   -1.1015    1.2710 C   0  0  0  0  0  0  0  0  0  0  0  0
   -5.3947    1.2059    2.0108 C   0  0  0  0  0  0  0  0  0  0  0  0
    2.0540    0.4893   -0.6151 C   0  0  0  0  0  0  0  0  0  0  0  0
    2.4182    1.7855   -0.2282 C   0  0  0  0  0  0  0  0  0  0  0  0
    3.4980    2.0325    0.6220 C   0  0  0  0  0  0  0  0  0  0  0  0
    4.2344    0.9988    1.1049 C   0  0  0  0  0  0  0  0  0  0  0  0
    5.3220    1.4175    1.9313 N   0  0  0  0  0  0  0  0  0  0  0  0
    6.6146    0.7598    2.0294 C   0  0  0  0  0  0  0  0  0  0  0  0
    7.4914    1.3286    2.6676 O   0  0  0  0  0  0  0  0  0  0  0  0
    7.0217   -0.5525    1.4413 C   0  0  0  0  0  0  0  0  0  0  0  0
    5.9721   -1.5349    1.5686 O   0  0  0  0  0  0  0  0  0  0  0  0
    4.6772   -1.5035    1.1426 C   0  0  0  0  0  0  0  0  0  0  0  0
    4.0220   -2.5533    1.0692 O   0  0  0  0  0  0  0  0  0  0  0  0
    3.9103   -0.3003    0.7462 C   0  0  0  0  0  0  0  0  0  0  0  0
    2.8551   -0.5219   -0.0868 C   0  0  0  0  0  0  0  0  0  0  0  0
   -2.0510   -1.8671   -3.3161 H   0  0  0  0  0  0  0  0  0  0  0  0
   -1.5874   -1.0447   -4.7943 H   0  0  0  0  0  0  0  0  0  0  0  0
   -2.6406   -0.1752   -3.6726 H   0  0  0  0  0  0  0  0  0  0  0  0
    0.2814   -1.9284   -0.2539 H   0  0  0  0  0  0  0  0  0  0  0  0
   -1.3161   -2.1192   -1.0451 H   0  0  0  0  0  0  0  0  0  0  0  0
   -0.4704   -0.1986    1.1172 H   0  0  0  0  0  0  0  0  0  0  0  0
   -5.3372   -0.1167   -1.0581 H   0  0  0  0  0  0  0  0  0  0  0  0
   -6.1063    1.3108   -0.2312 H   0  0  0  0  0  0  0  0  0  0  0  0
   -4.4020    1.4654   -0.7432 H   0  0  0  0  0  0  0  0  0  0  0  0
   -5.2900   -1.8583    0.4967 H   0  0  0  0  0  0  0  0  0  0  0  0
   -5.0180   -1.4897    2.2867 H   0  0  0  0  0  0  0  0  0  0  0  0
   -6.4760   -0.9831    1.4106 H   0  0  0  0  0  0  0  0  0  0  0  0
   -4.8462    1.1453    2.9716 H   0  0  0  0  0  0  0  0  0  0  0  0
   -6.4527    0.8757    2.1990 H   0  0  0  0  0  0  0  0  0  0  0  0
   -5.4286    2.2661    1.6159 H   0  0  0  0  0  0  0  0  0  0  0  0
    1.8160    2.5993   -0.5954 H   0  0  0  0  0  0  0  0  0  0  0  0
    3.7857    3.0120    0.9316 H   0  0  0  0  0  0  0  0  0  0  0  0
    5.1295    2.2592    2.4921 H   0  0  0  0  0  0  0  0  0  0  0  0
    7.9240   -0.9548    1.9377 H   0  0  0  0  0  0  0  0  0  0  0  0
    7.1699   -0.3518    0.3294 H   0  0  0  0  0  0  0  0  0  0  0  0
    2.6239   -1.5647   -0.3646 H   0  0  0  0  0  0  0  0  0  0  0  0
  1  2  1  0
  2  3  1  0
  3  4  1  0
  4  5  2  0
  5  6  1  0
  6  7  1  0
  7  8  1  0
  8  9  1  0
  9 10  2  0
  9 11  1  0
 11 12  1  0
 12 13  1  0
 12 14  1  0
 12 15  1  0
  5 16  1  0
 16 17  2  0
 17 18  1  0
 18 19  2  0
 19 20  1  0
 20 21  1  0
 21 22  2  0
 21 23  1  0
 23 24  1  0
 24 25  1  0
 25 26  2  0
 25 27  1  0
 27 28  2  0
  6  2  2  0
 28 16  1  0
 27 19  1  0
  1 29  1  0
  1 30  1  0
  1 31  1  0
  7 32  1  0
  7 33  1  0
  8 34  1  0
 13 35  1  0
 13 36  1  0
 13 37  1  0
 14 38  1  0
 14 39  1  0
 14 40  1  0
 15 41  1  0
 15 42  1  0
 15 43  1  0
 17 44  1  0
 18 45  1  0
 20 46  1  0
 23 47  1  0
 23 48  1  0
 28 49  1  0
M  END
$$$$
[H]c1c([H])c([H])c(C([H])(N([H])C(=O)C2([H])c3c(OC([H])([H])[H])c(OC([H])([H])[H])c([H])c([H])c3C([H])([H])C([H])([H])C2([H])[H])C([H])([H])N2C([H])([H])C([H])([H])C([H])([H])C2([H])[H])c([H])c1[H]
     RDKit          3D

 62 65  0  0  0  0  0  0  0  0999 V2000
    6.3787    2.8419    0.6387 C   0  0  0  0  0  0  0  0  0  0  0  0
    5.3527    1.9187    0.7965 O   0  0  0  0  0  0  0  0  0  0  0  0
    4.3716    1.5833   -0.1023 C   0  0  0  0  0  0  0  0  0  0  0  0
    4.3460    2.2085   -1.3366 C   0  0  0  0  0  0  0  0  0  0  0  0
    3.3489    1.8639   -2.2428 C   0  0  0  0  0  0  0  0  0  0  0  0
    2.4048    0.9088   -1.9002 C   0  0  0  0  0  0  0  0  0  0  0  0
    1.3311    0.4812   -2.8309 C   0  0  0  0  0  0  0  0  0  0  0  0
    1.3940   -1.0527   -2.7870 C   0  0  0  0  0  0  0  0  0  0  0  0
    1.1460   -1.5969   -1.4200 C   0  0  0  0  0  0  0  0  0  0  0  0
    1.4356   -0.6930   -0.2745 C   0  0  0  0  0  0  0  0  0  0  0  0
    0.2105    0.0330    0.1758 C   0  0  0  0  0  0  0  0  0  0  0  0
    0.2071    1.3143    0.2010 O   0  0  0  0  0  0  0  0  0  0  0  0
   -0.9879   -0.5926    0.5964 N   0  0  0  0  0  0  0  0  0  0  0  0
   -2.1149    0.1610    1.0298 C   0  0  0  0  0  0  0  0  0  0  0  0
   -3.4072   -0.1342    0.3835 C   0  0  0  0  0  0  0  0  0  0  0  0
   -3.4794    0.0778   -1.0337 N   0  0  0  0  0  0  0  0  0  0  0  0
   -2.7263   -0.8073   -1.8459 C   0  0  0  0  0  0  0  0  0  0  0  0
   -3.5990   -1.1984   -3.0207 C   0  0  0  0  0  0  0  0  0  0  0  0
   -4.9969   -1.0949   -2.4433 C   0  0  0  0  0  0  0  0  0  0  0  0
   -4.8636    0.0217   -1.4601 C   0  0  0  0  0  0  0  0  0  0  0  0
   -2.2403    0.0137    2.5153 C   0  0  0  0  0  0  0  0  0  0  0  0
   -2.1318   -1.2062    3.1014 C   0  0  0  0  0  0  0  0  0  0  0  0
   -2.2481   -1.3226    4.4668 C   0  0  0  0  0  0  0  0  0  0  0  0
   -2.4745   -0.1952    5.2306 C   0  0  0  0  0  0  0  0  0  0  0  0
   -2.5847    1.0415    4.6443 C   0  0  0  0  0  0  0  0  0  0  0  0
   -2.4635    1.1351    3.2611 C   0  0  0  0  0  0  0  0  0  0  0  0
    2.4621    0.3073   -0.6584 C   0  0  0  0  0  0  0  0  0  0  0  0
    3.4352    0.6239    0.2629 C   0  0  0  0  0  0  0  0  0  0  0  0
    3.4736    0.0108    1.4939 O   0  0  0  0  0  0  0  0  0  0  0  0
    4.2472   -1.1766    1.6195 C   0  0  0  0  0  0  0  0  0  0  0  0
    6.7175    2.8632   -0.3957 H   0  0  0  0  0  0  0  0  0  0  0  0
    7.1983    2.5313    1.3397 H   0  0  0  0  0  0  0  0  0  0  0  0
    6.0163    3.8614    0.8890 H   0  0  0  0  0  0  0  0  0  0  0  0
    5.0778    2.9502   -1.6069 H   0  0  0  0  0  0  0  0  0  0  0  0
    3.2750    2.3213   -3.2330 H   0  0  0  0  0  0  0  0  0  0  0  0
    0.3382    0.8506   -2.6128 H   0  0  0  0  0  0  0  0  0  0  0  0
    1.6270    0.7389   -3.8944 H   0  0  0  0  0  0  0  0  0  0  0  0
    2.4581   -1.2772   -3.0858 H   0  0  0  0  0  0  0  0  0  0  0  0
    0.6783   -1.4779   -3.4918 H   0  0  0  0  0  0  0  0  0  0  0  0
    0.0963   -1.9689   -1.3867 H   0  0  0  0  0  0  0  0  0  0  0  0
    1.7882   -2.5310   -1.3417 H   0  0  0  0  0  0  0  0  0  0  0  0
    1.8161   -1.3083    0.5864 H   0  0  0  0  0  0  0  0  0  0  0  0
   -1.0332   -1.6316    0.5871 H   0  0  0  0  0  0  0  0  0  0  0  0
   -1.8846    1.2495    0.8263 H   0  0  0  0  0  0  0  0  0  0  0  0
   -4.1728    0.5811    0.8269 H   0  0  0  0  0  0  0  0  0  0  0  0
   -3.8107   -1.1480    0.6548 H   0  0  0  0  0  0  0  0  0  0  0  0
   -1.8044   -0.3333   -2.2004 H   0  0  0  0  0  0  0  0  0  0  0  0
   -2.4771   -1.7706   -1.3333 H   0  0  0  0  0  0  0  0  0  0  0  0
   -3.3782   -2.2447   -3.3430 H   0  0  0  0  0  0  0  0  0  0  0  0
   -3.4877   -0.5305   -3.8911 H   0  0  0  0  0  0  0  0  0  0  0  0
   -5.3167   -2.0302   -1.9308 H   0  0  0  0  0  0  0  0  0  0  0  0
   -5.6764   -0.8622   -3.3050 H   0  0  0  0  0  0  0  0  0  0  0  0
   -5.2012    0.9548   -1.9709 H   0  0  0  0  0  0  0  0  0  0  0  0
   -5.5750   -0.1270   -0.6141 H   0  0  0  0  0  0  0  0  0  0  0  0
   -1.9541   -2.1292    2.5516 H   0  0  0  0  0  0  0  0  0  0  0  0
   -2.1620   -2.3000    4.9567 H   0  0  0  0  0  0  0  0  0  0  0  0
   -2.5687   -0.2727    6.3146 H   0  0  0  0  0  0  0  0  0  0  0  0
   -2.7629    1.9546    5.1929 H   0  0  0  0  0  0  0  0  0  0  0  0
   -2.5546    2.1362    2.8098 H   0  0  0  0  0  0  0  0  0  0  0  0
    4.8216   -1.4217    0.7151 H   0  0  0  0  0  0  0  0  0  0  0  0
    3.6589   -2.0652    1.8954 H   0  0  0  0  0  0  0  0  0  0  0  0
    5.0257   -1.0388    2.4298 H   0  0  0  0  0  0  0  0  0  0  0  0
  1  2  1  0
  2  3  1  0
  3  4  2  0
  4  5  1  0
  5  6  2  0
  6  7  1  0
  7  8  1  0
  8  9  1  0
  9 10  1  0
 10 11  1  0
 11 12  2  0
 11 13  1  0
 13 14  1  0
 14 15  1  0
 15 16  1  0
 16 17  1  0
 17 18  1  0
 18 19  1  0
 19 20  1  0
 14 21  1  0
 21 22  2  0
 22 23  1  0
 23 24  2  0
 24 25  1  0
 25 26  2  0
 10 27  1  0
 27 28  2  0
 28 29  1  0
 29 30  1  0
 28  3  1  0
 27  6  1  0
 20 16  1  0
 26 21  1  0
  1 31  1  0
  1 32  1  0
  1 33  1  0
  4 34  1  0
  5 35  1  0
  7 36  1  0
  7 37  1  0
  8 38  1  0
  8 39  1  0
  9 40  1  0
  9 41  1  0
 10 42  1  0
 13 43  1  0
 14 44  1  0
 15 45  1  0
 15 46  1  0
 17 47  1  0
 17 48  1  0
 18 49  1  0
 18 50  1  0
 19 51  1  0
 19 52  1  0
 20 53  1  0
 20 54  1  0
 22 55  1  0
 23 56  1  0
 24 57  1  0
 25 58  1  0
 26 59  1  0
 30 60  1  0
 30 61  1  0
 30 62  1  0
M  END
$$$$
[H]C1([H])C(=O)N2S[C@@](C(=O)[O-])(C([H])([H])[H])C([H])([H])S[C@@]2([H])[C@]1([H])C(=O)[O-]
     RDKit          3D

 26 27  0  0  0  0  0  0  0  0999 V2000
   -3.5719   -0.6526   -0.3071 C   0  0  0  0  0  0  0  0  0  0  0  0
   -2.1296   -0.3334    0.0387 C   0  0  1  0  0  0  0  0  0  0  0  0
   -1.4605   -1.5419    0.6339 C   0  0  0  0  0  0  0  0  0  0  0  0
    0.2577   -1.7421    0.0851 S   0  0  0  0  0  0  0  0  0  0  0  0
    1.0369   -0.1369    0.1126 C   0  0  1  0  0  0  0  0  0  0  0  0
    2.4582   -0.1479   -0.4416 C   0  0  1  0  0  0  0  0  0  0  0  0
    2.6659    1.3446   -0.6274 C   0  0  0  0  0  0  0  0  0  0  0  0
    1.3180    1.7227   -1.1882 C   0  0  0  0  0  0  0  0  0  0  0  0
    1.0033    2.7620   -1.8165 O   0  0  0  0  0  0  0  0  0  0  0  0
    0.3940    0.6855   -0.8946 N   0  0  0  0  0  0  0  0  0  0  0  0
   -1.2126    0.2144   -1.4334 S   0  0  0  0  0  0  0  0  0  0  0  0
    3.4142   -0.7375    0.5149 C   0  0  0  0  0  0  0  0  0  0  0  0
    4.6830   -1.0490    0.0445 O   0  0  0  0  0  0  0  0  0  0  0  0
    3.1324   -0.9630    1.7078 O   0  0  0  0  0  0  0  0  0  0  0  0
   -2.1463    0.8135    0.9831 C   0  0  0  0  0  0  0  0  0  0  0  0
   -2.6716    2.0515    0.6792 O   0  0  0  0  0  0  0  0  0  0  0  0
   -1.6518    0.6383    2.1226 O   0  0  0  0  0  0  0  0  0  0  0  0
   -3.9941   -1.1907    0.5677 H   0  0  0  0  0  0  0  0  0  0  0  0
   -3.6526   -1.2458   -1.2398 H   0  0  0  0  0  0  0  0  0  0  0  0
   -4.1246    0.2974   -0.3954 H   0  0  0  0  0  0  0  0  0  0  0  0
   -1.4571   -1.4196    1.7430 H   0  0  0  0  0  0  0  0  0  0  0  0
   -2.0132   -2.4790    0.4077 H   0  0  0  0  0  0  0  0  0  0  0  0
    1.0455    0.3532    1.1118 H   0  0  0  0  0  0  0  0  0  0  0  0
    2.4260   -0.6380   -1.4152 H   0  0  0  0  0  0  0  0  0  0  0  0
    2.7805    1.8208    0.3489 H   0  0  0  0  0  0  0  0  0  0  0  0
    3.4700    1.5735   -1.3425 H   0  0  0  0  0  0  0  0  0  0  0  0
  1  2  1  0
  2  3  1  0
  3  4  1  0
  4  5  1  0
  5  6  1  0
  6  7  1  0
  7  8  1  0
  8  9  2  0
  8 10  1  0
 10 11  1  0
  6 12  1  0
 12 13  1  0
 12 14  2  0
  2 15  1  1
 15 16  1  0
 15 17  2  0
 11  2  1  0
 10  5  1  0
  1 18  1  0
  1 19  1  0
  1 20  1  0
  3 21  1  0
  3 22  1  0
  5 23  1  1
  6 24  1  6
  7 25  1  0
  7 26  1  0
M  CHG  2  13  -1  16  -1
M  END
$$$$
[H]c1nc2c([H])c(F)c(N([H])C(=O)c3nsc(C(=O)N([H])[H])n3)c([H])c2c([H])c1[H]
     RDKit          3D

 30 32  0  0  0  0  0  0  0  0999 V2000
    7.4104   -0.4451    0.2450 N   0  0  0  0  0  0  0  0  0  0  0  0
    6.1241   -0.9804    0.6210 C   0  0  0  0  0  0  0  0  0  0  0  0
    6.0753   -2.0016    1.3151 O   0  0  0  0  0  0  0  0  0  0  0  0
    4.9040   -0.3038    0.1732 C   0  0  0  0  0  0  0  0  0  0  0  0
    3.6390   -0.5983    0.3855 N   0  0  0  0  0  0  0  0  0  0  0  0
    2.7227    0.1635   -0.1230 C   0  0  0  0  0  0  0  0  0  0  0  0
    3.1092    1.2210   -0.8450 N   0  0  0  0  0  0  0  0  0  0  0  0
    4.7905    1.1039   -0.7817 S   0  0  0  0  0  0  0  0  0  0  0  0
    1.2641   -0.1198    0.0835 C   0  0  0  0  0  0  0  0  0  0  0  0
    0.9256   -1.1137    0.7617 O   0  0  0  0  0  0  0  0  0  0  0  0
    0.3086    0.7398   -0.4911 N   0  0  0  0  0  0  0  0  0  0  0  0
   -1.0866    0.6790   -0.4363 C   0  0  0  0  0  0  0  0  0  0  0  0
   -1.8100   -0.2868    0.2265 C   0  0  0  0  0  0  0  0  0  0  0  0
   -3.2093   -0.3267    0.2671 C   0  0  0  0  0  0  0  0  0  0  0  0
   -3.8774   -1.3180    0.9468 C   0  0  0  0  0  0  0  0  0  0  0  0
   -5.2704   -1.3117    0.9559 C   0  0  0  0  0  0  0  0  0  0  0  0
   -5.9276   -0.3053    0.2788 C   0  0  0  0  0  0  0  0  0  0  0  0
   -5.2255    0.6400   -0.3700 N   0  0  0  0  0  0  0  0  0  0  0  0
   -3.8760    0.6705   -0.4037 C   0  0  0  0  0  0  0  0  0  0  0  0
   -3.1775    1.6484   -1.0746 C   0  0  0  0  0  0  0  0  0  0  0  0
   -1.8116    1.6799   -1.1091 C   0  0  0  0  0  0  0  0  0  0  0  0
   -1.1529    2.6792   -1.7941 F   0  0  0  0  0  0  0  0  0  0  0  0
    7.7925   -0.6244   -0.6868 H   0  0  0  0  0  0  0  0  0  0  0  0
    7.9093    0.1131    0.9487 H   0  0  0  0  0  0  0  0  0  0  0  0
    0.7224    1.5613   -1.0530 H   0  0  0  0  0  0  0  0  0  0  0  0
   -1.3192   -1.0906    0.7677 H   0  0  0  0  0  0  0  0  0  0  0  0
   -3.3335   -2.0931    1.4679 H   0  0  0  0  0  0  0  0  0  0  0  0
   -5.8429   -2.0804    1.4835 H   0  0  0  0  0  0  0  0  0  0  0  0
   -7.0195   -0.3115    0.2936 H   0  0  0  0  0  0  0  0  0  0  0  0
   -3.7577    2.4114   -1.5871 H   0  0  0  0  0  0  0  0  0  0  0  0
  1  2  1  0
  2  3  2  0
  2  4  1  0
  4  5  2  0
  5  6  1  0
  6  7  2  0
  7  8  1  0
  6  9  1  0
  9 10  2  0
  9 11  1  0
 11 12  1  0
 12 13  2  0
 13 14  1  0
 14 15  2  0
 15 16  1  0
 16 17  2  0
 17 18  1  0
 18 19  2  0
 19 20  1  0
 20 21  2  0
 21 22  1  0
  8  4  1  0
 21 12  1  0
 19 14  1  0
  1 23  1  0
  1 24  1  0
 11 25  1  0
 13 26  1  0
 15 27  1  0
 16 28  1  0
 17 29  1  0
 20 30  1  0
M  END
$$$$
[H]OC([H])([H])C([H])(O[H])c1nn2c(C#N)c([H])c([H])c2c2c([H])nc(N([H])C([H])([H])C([H])([H])[H])nc12
     RDKit          3D

 36 38  0  0  0  0  0  0  0  0999 V2000
    5.8510   -0.1253    0.8105 C   0  0  0  0  0  0  0  0  0  0  0  0
    4.6003    0.2310    0.0726 C   0  0  0  0  0  0  0  0  0  0  0  0
    3.3935   -0.1772    0.7167 N   0  0  0  0  0  0  0  0  0  0  0  0
    2.1462    0.0995    0.1032 C   0  0  0  0  0  0  0  0  0  0  0  0
    2.0847    0.7328   -1.0629 N   0  0  0  0  0  0  0  0  0  0  0  0
    0.9158    1.0315   -1.7094 C   0  0  0  0  0  0  0  0  0  0  0  0
   -0.2613    0.6527   -1.1151 C   0  0  0  0  0  0  0  0  0  0  0  0
   -1.4664    0.9235   -1.7180 C   0  0  0  0  0  0  0  0  0  0  0  0
   -1.7777    1.5576   -2.9056 C   0  0  0  0  0  0  0  0  0  0  0  0
   -3.1538    1.5735   -3.0548 C   0  0  0  0  0  0  0  0  0  0  0  0
   -3.6804    0.9422   -1.9459 C   0  0  0  0  0  0  0  0  0  0  0  0
   -5.0814    0.7477   -1.7083 C   0  0  0  0  0  0  0  0  0  0  0  0
   -6.1992    0.5921   -1.5116 N   0  0  0  0  0  0  0  0  0  0  0  0
   -2.6444    0.5668   -1.1687 N   0  0  0  0  0  0  0  0  0  0  0  0
   -2.5810   -0.0710    0.0054 N   0  0  0  0  0  0  0  0  0  0  0  0
   -1.4366   -0.3562    0.6292 C   0  0  0  0  0  0  0  0  0  0  0  0
   -0.2029   -0.0042    0.0939 C   0  0  0  0  0  0  0  0  0  0  0  0
    0.9682   -0.2741    0.6885 N   0  0  0  0  0  0  0  0  0  0  0  0
   -1.4763   -1.0589    1.9178 C   0  0  0  0  0  0  0  0  0  0  0  0
   -0.6172   -2.1323    1.9602 O   0  0  0  0  0  0  0  0  0  0  0  0
   -2.8906   -1.4690    2.2805 C   0  0  0  0  0  0  0  0  0  0  0  0
   -2.9044   -1.9927    3.5602 O   0  0  0  0  0  0  0  0  0  0  0  0
    6.7058    0.3700    0.3085 H   0  0  0  0  0  0  0  0  0  0  0  0
    6.0306   -1.2278    0.6380 H   0  0  0  0  0  0  0  0  0  0  0  0
    5.7993    0.0219    1.8875 H   0  0  0  0  0  0  0  0  0  0  0  0
    4.5655    1.3462   -0.0422 H   0  0  0  0  0  0  0  0  0  0  0  0
    4.6183   -0.2078   -0.9511 H   0  0  0  0  0  0  0  0  0  0  0  0
    3.4273   -0.6743    1.6296 H   0  0  0  0  0  0  0  0  0  0  0  0
    0.9608    1.5498   -2.6560 H   0  0  0  0  0  0  0  0  0  0  0  0
   -1.0319    1.9546   -3.5662 H   0  0  0  0  0  0  0  0  0  0  0  0
   -3.6952    2.0025   -3.8856 H   0  0  0  0  0  0  0  0  0  0  0  0
   -1.1006   -0.3263    2.6897 H   0  0  0  0  0  0  0  0  0  0  0  0
   -0.5726   -2.6218    1.0952 H   0  0  0  0  0  0  0  0  0  0  0  0
   -3.5697   -0.6049    2.2204 H   0  0  0  0  0  0  0  0  0  0  0  0
   -3.2490   -2.2181    1.5210 H   0  0  0  0  0  0  0  0  0  0  0  0
   -2.4749   -1.3538    4.1728 H   0  0  0  0  0  0  0  0  0  0  0  0
  1  2  1  0
  2  3  1  0
  3  4  1  0
  4  5  2  0
  5  6  1  0
  6  7  2  0
  7  8  1  0
  8  9  2  0
  9 10  1  0
 10 11  2  0
 11 12  1  0
 12 13  3  0
 11 14  1  0
 14 15  1  0
 15 16  2  0
 16 17  1  0
 17 18  2  0
 16 19  1  0
 19 20  1  0
 19 21  1  0
 21 22  1  0
 18  4  1  0
 17  7  1  0
 14  8  1  0
  1 23  1  0
  1 24  1  0
  1 25  1  0
  2 26  1  0
  2 27  1  0
  3 28  1  0
  6 29  1  0
  9 30  1  0
 10 31  1  0
 19 32  1  0
 20 33  1  0
 21 34  1  0
 21 35  1  0
 22 36  1  0
M  END
$$$$
[H]OC(=O)C([H])([H])Oc1c([H])c([H])c([H])c(-c2nc(C(=O)N([H])c3c([H])c([H])c(F)c([H])c3[H])c([H])s2)c1[H]
     RDKit          3D

 39 41  0  0  0  0  0  0  0  0999 V2000
    6.4052   -1.4259    1.8666 O   0  0  0  0  0  0  0  0  0  0  0  0
    7.3321   -0.9637    0.9514 C   0  0  0  0  0  0  0  0  0  0  0  0
    8.4536   -1.5464    0.9161 O   0  0  0  0  0  0  0  0  0  0  0  0
    7.0559    0.1530    0.0511 C   0  0  0  0  0  0  0  0  0  0  0  0
    5.7455    0.5938    0.1648 O   0  0  0  0  0  0  0  0  0  0  0  0
    4.6060   -0.1115   -0.1409 C   0  0  0  0  0  0  0  0  0  0  0  0
    4.6505   -1.3825   -0.6432 C   0  0  0  0  0  0  0  0  0  0  0  0
    3.4993   -2.0888   -0.9456 C   0  0  0  0  0  0  0  0  0  0  0  0
    2.2719   -1.4460   -0.7163 C   0  0  0  0  0  0  0  0  0  0  0  0
    2.2129   -0.1917   -0.2217 C   0  0  0  0  0  0  0  0  0  0  0  0
    3.3553    0.4905    0.0715 C   0  0  0  0  0  0  0  0  0  0  0  0
    0.9233    0.4562    0.0084 C   0  0  0  0  0  0  0  0  0  0  0  0
   -0.2951    0.0065   -0.1934 N   0  0  0  0  0  0  0  0  0  0  0  0
   -1.3268    0.7499    0.0797 C   0  0  0  0  0  0  0  0  0  0  0  0
   -1.0846    2.0045    0.5801 C   0  0  0  0  0  0  0  0  0  0  0  0
    0.6222    2.0382    0.6273 S   0  0  0  0  0  0  0  0  0  0  0  0
   -2.7147    0.2298   -0.1533 C   0  0  0  0  0  0  0  0  0  0  0  0
   -2.8741   -0.9239   -0.6122 O   0  0  0  0  0  0  0  0  0  0  0  0
   -3.8149    1.0281    0.1403 N   0  0  0  0  0  0  0  0  0  0  0  0
   -5.1581    0.7006   -0.0230 C   0  0  0  0  0  0  0  0  0  0  0  0
   -6.1063    1.4858    0.6430 C   0  0  0  0  0  0  0  0  0  0  0  0
   -7.4470    1.2530    0.5307 C   0  0  0  0  0  0  0  0  0  0  0  0
   -7.9259    0.2318   -0.2456 C   0  0  0  0  0  0  0  0  0  0  0  0
   -9.2310   -0.0095   -0.3662 F   0  0  0  0  0  0  0  0  0  0  0  0
   -7.0141   -0.5428   -0.9018 C   0  0  0  0  0  0  0  0  0  0  0  0
   -5.6438   -0.3256   -0.8037 C   0  0  0  0  0  0  0  0  0  0  0  0
    6.3094   -2.4378    1.9512 H   0  0  0  0  0  0  0  0  0  0  0  0
    7.7991    0.9837    0.1468 H   0  0  0  0  0  0  0  0  0  0  0  0
    7.2502   -0.2375   -0.9969 H   0  0  0  0  0  0  0  0  0  0  0  0
    5.6185   -1.8501   -0.8264 H   0  0  0  0  0  0  0  0  0  0  0  0
    3.5592   -3.0758   -1.3345 H   0  0  0  0  0  0  0  0  0  0  0  0
    1.3532   -1.9726   -0.9430 H   0  0  0  0  0  0  0  0  0  0  0  0
    3.3302    1.4912    0.4665 H   0  0  0  0  0  0  0  0  0  0  0  0
   -1.8131    2.7858    0.8743 H   0  0  0  0  0  0  0  0  0  0  0  0
   -3.5987    1.9968    0.5277 H   0  0  0  0  0  0  0  0  0  0  0  0
   -5.7787    2.3084    1.2721 H   0  0  0  0  0  0  0  0  0  0  0  0
   -8.1699    1.8736    1.0556 H   0  0  0  0  0  0  0  0  0  0  0  0
   -7.3462   -1.3553   -1.5220 H   0  0  0  0  0  0  0  0  0  0  0  0
   -5.0106   -0.9738   -1.3611 H   0  0  0  0  0  0  0  0  0  0  0  0
  1  2  1  0
  2  3  2  0
  2  4  1  0
  4  5  1  0
  5  6  1  0
  6  7  2  0
  7  8  1  0
  8  9  2  0
  9 10  1  0
 10 11  2  0
 10 12  1  0
 12 13  2  0
 13 14  1  0
 14 15  2  0
 15 16  1  0
 14 17  1  0
 17 18  2  0
 17 19  1  0
 19 20  1  0
 20 21  2  0
 21 22  1  0
 22 23  2  0
 23 24  1  0
 23 25  1  0
 25 26  2  0
 11  6  1  0
 16 12  1  0
 26 20  1  0
  1 27  1  0
  4 28  1  0
  4 29  1  0
  7 30  1  0
  8 31  1  0
  9 32  1  0
 11 33  1  0
 15 34  1  0
 19 35  1  0
 21 36  1  0
 22 37  1  0
 25 38  1  0
 26 39  1  0
M  END
$$$$
[H]c1c([H])c([H])c2c(c1[H])c1c3c(c4c5c([H])c([H])c([H])c([H])c5n5c4c1n2[C@@]1(C([H])([H])[H])O[C@]5([H])C([H])([H])[C@@]([H])(N([H])C([H])([H])[H])[C@@]1([H])OC([H])([H])[H])C(=O)N([H])C3([H])[H]
     RDKit          3D

 61 68  0  0  0  0  0  0  0  0999 V2000
   -3.3415   -2.0929    0.8927 C   0  0  0  0  0  0  0  0  0  0  0  0
   -2.7520   -0.8244    0.5060 N   0  0  0  0  0  0  0  0  0  0  0  0
   -2.5947   -0.7699   -0.9652 C   0  0  2  0  0  0  0  0  0  0  0  0
   -1.6635   -1.8336   -1.3456 C   0  0  0  0  0  0  0  0  0  0  0  0
   -0.4098   -1.3263   -1.9401 C   0  0  1  0  0  0  0  0  0  0  0  0
   -0.2904   -0.0961   -2.3609 O   0  0  0  0  0  0  0  0  0  0  0  0
   -0.9141    0.9817   -1.7381 C   0  0  1  0  0  0  0  0  0  0  0  0
   -0.8729    2.0231   -2.8643 C   0  0  0  0  0  0  0  0  0  0  0  0
   -2.2914    0.6326   -1.4119 C   0  0  2  0  0  0  0  0  0  0  0  0
   -2.9229    1.4324   -0.4622 O   0  0  0  0  0  0  0  0  0  0  0  0
   -4.0664    2.0564   -0.9455 C   0  0  0  0  0  0  0  0  0  0  0  0
   -0.0747    1.3904   -0.5981 N   0  0  0  0  0  0  0  0  0  0  0  0
    0.0066    2.5943   -0.0347 C   0  0  0  0  0  0  0  0  0  0  0  0
   -0.6403    3.7755   -0.2701 C   0  0  0  0  0  0  0  0  0  0  0  0
   -0.3753    4.9057    0.4704 C   0  0  0  0  0  0  0  0  0  0  0  0
    0.5715    4.8915    1.4994 C   0  0  0  0  0  0  0  0  0  0  0  0
    1.2169    3.7192    1.7374 C   0  0  0  0  0  0  0  0  0  0  0  0
    0.9447    2.6014    0.9941 C   0  0  0  0  0  0  0  0  0  0  0  0
    1.4533    1.3308    1.0530 C   0  0  0  0  0  0  0  0  0  0  0  0
    2.4134    0.7192    1.8621 C   0  0  0  0  0  0  0  0  0  0  0  0
    3.2252    1.2814    2.9656 C   0  0  0  0  0  0  0  0  0  0  0  0
    4.0513    0.2282    3.4563 N   0  0  0  0  0  0  0  0  0  0  0  0
    3.7725   -0.9500    2.6928 C   0  0  0  0  0  0  0  0  0  0  0  0
    4.3602   -2.0093    2.9202 O   0  0  0  0  0  0  0  0  0  0  0  0
    2.7553   -0.6238    1.7110 C   0  0  0  0  0  0  0  0  0  0  0  0
    2.1006   -1.3257    0.7242 C   0  0  0  0  0  0  0  0  0  0  0  0
    2.1422   -2.6347    0.2794 C   0  0  0  0  0  0  0  0  0  0  0  0
    2.8759   -3.7217    0.6638 C   0  0  0  0  0  0  0  0  0  0  0  0
    2.6892   -4.9254    0.0128 C   0  0  0  0  0  0  0  0  0  0  0  0
    1.7808   -5.0386   -1.0084 C   0  0  0  0  0  0  0  0  0  0  0  0
    1.0343   -3.9515   -1.4066 C   0  0  0  0  0  0  0  0  0  0  0  0
    1.2263   -2.7646   -0.7562 C   0  0  0  0  0  0  0  0  0  0  0  0
    0.6469   -1.5975   -0.9447 N   0  0  0  0  0  0  0  0  0  0  0  0
    1.1358   -0.7009   -0.0851 C   0  0  0  0  0  0  0  0  0  0  0  0
    0.8119    0.6350    0.0794 C   0  0  0  0  0  0  0  0  0  0  0  0
   -3.9345   -1.8764    1.8249 H   0  0  0  0  0  0  0  0  0  0  0  0
   -2.5804   -2.8202    1.1896 H   0  0  0  0  0  0  0  0  0  0  0  0
   -4.0376   -2.4413    0.1071 H   0  0  0  0  0  0  0  0  0  0  0  0
   -1.8252   -0.7857    0.9817 H   0  0  0  0  0  0  0  0  0  0  0  0
   -3.6418   -1.0758   -1.3069 H   0  0  0  0  0  0  0  0  0  0  0  0
   -1.4743   -2.5407   -0.4944 H   0  0  0  0  0  0  0  0  0  0  0  0
   -2.1827   -2.5069   -2.1019 H   0  0  0  0  0  0  0  0  0  0  0  0
   -0.1764   -2.0147   -2.8352 H   0  0  0  0  0  0  0  0  0  0  0  0
   -1.8561    2.5173   -2.9808 H   0  0  0  0  0  0  0  0  0  0  0  0
   -0.0367    2.7359   -2.7018 H   0  0  0  0  0  0  0  0  0  0  0  0
   -0.6761    1.5932   -3.8662 H   0  0  0  0  0  0  0  0  0  0  0  0
   -2.9127    0.7625   -2.3525 H   0  0  0  0  0  0  0  0  0  0  0  0
   -4.5472    2.6842   -0.1440 H   0  0  0  0  0  0  0  0  0  0  0  0
   -3.8494    2.7776   -1.7563 H   0  0  0  0  0  0  0  0  0  0  0  0
   -4.7942    1.3294   -1.3803 H   0  0  0  0  0  0  0  0  0  0  0  0
   -1.3647    3.8112   -1.0348 H   0  0  0  0  0  0  0  0  0  0  0  0
   -0.8845    5.8355    0.2847 H   0  0  0  0  0  0  0  0  0  0  0  0
    0.7949    5.7654    2.0918 H   0  0  0  0  0  0  0  0  0  0  0  0
    1.9682    3.6487    2.5304 H   0  0  0  0  0  0  0  0  0  0  0  0
    3.8868    2.0907    2.5395 H   0  0  0  0  0  0  0  0  0  0  0  0
    2.5967    1.6993    3.7873 H   0  0  0  0  0  0  0  0  0  0  0  0
    4.7363    0.3270    4.2421 H   0  0  0  0  0  0  0  0  0  0  0  0
    3.5871   -3.7061    1.4353 H   0  0  0  0  0  0  0  0  0  0  0  0
    3.2659   -5.8106    0.3031 H   0  0  0  0  0  0  0  0  0  0  0  0
    1.6292   -5.9934   -1.5280 H   0  0  0  0  0  0  0  0  0  0  0  0
    0.3048   -4.0175   -2.2172 H   0  0  0  0  0  0  0  0  0  0  0  0
  1  2  1  0
  2  3  1  0
  3  4  1  0
  4  5  1  0
  5  6  1  0
  6  7  1  0
  7  8  1  6
  7  9  1  0
  9 10  1  0
 10 11  1  0
  7 12  1  0
 12 13  1  0
 13 14  2  0
 14 15  1  0
 15 16  2  0
 16 17  1  0
 17 18  2  0
 18 19  1  0
 19 20  2  0
 20 21  1  0
 21 22  1  0
 22 23  1  0
 23 24  2  0
 23 25  1  0
 25 26  2  0
 26 27  1  0
 27 28  2  0
 28 29  1  0
 29 30  2  0
 30 31  1  0
 31 32  2  0
 32 33  1  0
 33 34  1  0
 34 35  2  0
  9  3  1  0
 35 12  1  0
 33  5  1  0
 18 13  1  0
 35 19  1  0
 25 20  1  0
 34 26  1  0
 32 27  1  0
  1 36  1  0
  1 37  1  0
  1 38  1  0
  2 39  1  0
  3 40  1  6
  4 41  1  0
  4 42  1  0
  5 43  1  6
  8 44  1  0
  8 45  1  0
  8 46  1  0
  9 47  1  6
 11 48  1  0
 11 49  1  0
 11 50  1  0
 14 51  1  0
 15 52  1  0
 16 53  1  0
 17 54  1  0
 21 55  1  0
 21 56  1  0
 22 57  1  0
 28 58  1  0
 29 59  1  0
 30 60  1  0
 31 61  1  0
M  END
$$$$
[H]c1c(N([H])c2nn([H])c(C([H])([H])[H])c2[H])nc(Oc2c([H])c([H])c(N([H])C3([H])C([H])([H])C([H])([H])C([H])([H])C([H])([H])C3([H])[H])c([H])c2[H])nc1N1C([H])([H])C([H])([H])N(C([H])([H])C([H])([H])[H])C([H])([H])C1([H])[H]
     RDKit          3D

 71 75  0  0  0  0  0  0  0  0999 V2000
   -3.9462   -5.2422    1.7209 C   0  0  0  0  0  0  0  0  0  0  0  0
   -4.7867   -4.2360    1.0179 C   0  0  0  0  0  0  0  0  0  0  0  0
   -4.1518   -3.6203   -0.1114 N   0  0  0  0  0  0  0  0  0  0  0  0
   -4.9426   -2.6573   -0.7866 C   0  0  0  0  0  0  0  0  0  0  0  0
   -4.7631   -1.3031   -0.1359 C   0  0  0  0  0  0  0  0  0  0  0  0
   -3.3551   -0.9804   -0.2017 N   0  0  0  0  0  0  0  0  0  0  0  0
   -2.3484   -1.9710   -0.3723 C   0  0  0  0  0  0  0  0  0  0  0  0
   -2.7715   -3.3615    0.0168 C   0  0  0  0  0  0  0  0  0  0  0  0
   -2.9665    0.3815   -0.0890 C   0  0  0  0  0  0  0  0  0  0  0  0
   -3.8701    1.3758    0.1131 C   0  0  0  0  0  0  0  0  0  0  0  0
   -3.4307    2.6967    0.2153 C   0  0  0  0  0  0  0  0  0  0  0  0
   -4.3415    3.7378    0.4206 N   0  0  0  0  0  0  0  0  0  0  0  0
   -4.0055    5.1098    0.5429 C   0  0  0  0  0  0  0  0  0  0  0  0
   -2.8024    5.7637    0.5044 C   0  0  0  0  0  0  0  0  0  0  0  0
   -3.0145    7.1144    0.6745 C   0  0  0  0  0  0  0  0  0  0  0  0
   -1.9740    8.1876    0.6980 C   0  0  0  0  0  0  0  0  0  0  0  0
   -4.3366    7.2428    0.8111 N   0  0  0  0  0  0  0  0  0  0  0  0
   -4.9410    6.1023    0.7400 N   0  0  0  0  0  0  0  0  0  0  0  0
   -2.1062    2.9039    0.1041 N   0  0  0  0  0  0  0  0  0  0  0  0
   -1.2032    1.9323   -0.0953 C   0  0  0  0  0  0  0  0  0  0  0  0
    0.1338    2.2816   -0.1921 O   0  0  0  0  0  0  0  0  0  0  0  0
    1.1423    1.3693   -0.3994 C   0  0  0  0  0  0  0  0  0  0  0  0
    1.5485    1.0308   -1.6717 C   0  0  0  0  0  0  0  0  0  0  0  0
    2.5536    0.1222   -1.9152 C   0  0  0  0  0  0  0  0  0  0  0  0
    3.2137   -0.5041   -0.8606 C   0  0  0  0  0  0  0  0  0  0  0  0
    4.2404   -1.4476   -1.1342 N   0  0  0  0  0  0  0  0  0  0  0  0
    5.1057   -2.0315   -0.1437 C   0  0  0  0  0  0  0  0  0  0  0  0
    5.9752   -0.9526    0.4596 C   0  0  0  0  0  0  0  0  0  0  0  0
    7.0972   -0.6986   -0.5398 C   0  0  0  0  0  0  0  0  0  0  0  0
    8.0912   -1.8120   -0.6052 C   0  0  0  0  0  0  0  0  0  0  0  0
    7.3713   -3.0938   -0.2089 C   0  0  0  0  0  0  0  0  0  0  0  0
    5.9696   -3.0847   -0.7780 C   0  0  0  0  0  0  0  0  0  0  0  0
    2.8079   -0.1662    0.4084 C   0  0  0  0  0  0  0  0  0  0  0  0
    1.8004    0.7451    0.6385 C   0  0  0  0  0  0  0  0  0  0  0  0
   -1.6616    0.6907   -0.1868 N   0  0  0  0  0  0  0  0  0  0  0  0
   -3.2025   -5.7408    1.0361 H   0  0  0  0  0  0  0  0  0  0  0  0
   -4.5774   -6.0393    2.1264 H   0  0  0  0  0  0  0  0  0  0  0  0
   -3.4070   -4.7942    2.5859 H   0  0  0  0  0  0  0  0  0  0  0  0
   -5.0627   -3.4355    1.7336 H   0  0  0  0  0  0  0  0  0  0  0  0
   -5.7438   -4.7327    0.7060 H   0  0  0  0  0  0  0  0  0  0  0  0
   -5.9861   -2.9783   -0.7955 H   0  0  0  0  0  0  0  0  0  0  0  0
   -4.5837   -2.5606   -1.8423 H   0  0  0  0  0  0  0  0  0  0  0  0
   -5.3909   -0.5979   -0.7183 H   0  0  0  0  0  0  0  0  0  0  0  0
   -5.1718   -1.3311    0.8786 H   0  0  0  0  0  0  0  0  0  0  0  0
   -1.4601   -1.6430    0.2418 H   0  0  0  0  0  0  0  0  0  0  0  0
   -1.9944   -1.9435   -1.4253 H   0  0  0  0  0  0  0  0  0  0  0  0
   -2.3403   -3.5647    1.0183 H   0  0  0  0  0  0  0  0  0  0  0  0
   -2.2206   -4.0588   -0.6787 H   0  0  0  0  0  0  0  0  0  0  0  0
   -4.9048    1.1554    0.1939 H   0  0  0  0  0  0  0  0  0  0  0  0
   -5.3603    3.4812    0.4901 H   0  0  0  0  0  0  0  0  0  0  0  0
   -1.8299    5.3016    0.3633 H   0  0  0  0  0  0  0  0  0  0  0  0
   -2.4022    9.0354    0.1208 H   0  0  0  0  0  0  0  0  0  0  0  0
   -1.7781    8.5325    1.7328 H   0  0  0  0  0  0  0  0  0  0  0  0
   -1.0733    7.8178    0.2014 H   0  0  0  0  0  0  0  0  0  0  0  0
   -4.7673    8.2148    0.9588 H   0  0  0  0  0  0  0  0  0  0  0  0
    1.0318    1.5209   -2.4953 H   0  0  0  0  0  0  0  0  0  0  0  0
    2.8469   -0.1189   -2.9481 H   0  0  0  0  0  0  0  0  0  0  0  0
    4.3569   -1.7268   -2.1546 H   0  0  0  0  0  0  0  0  0  0  0  0
    4.4634   -2.4849    0.6719 H   0  0  0  0  0  0  0  0  0  0  0  0
    6.4013   -1.2843    1.4403 H   0  0  0  0  0  0  0  0  0  0  0  0
    5.4709    0.0028    0.6323 H   0  0  0  0  0  0  0  0  0  0  0  0
    7.5887    0.2383   -0.1992 H   0  0  0  0  0  0  0  0  0  0  0  0
    6.6365   -0.5513   -1.5301 H   0  0  0  0  0  0  0  0  0  0  0  0
    8.9664   -1.6138    0.0421 H   0  0  0  0  0  0  0  0  0  0  0  0
    8.4966   -1.9540   -1.6470 H   0  0  0  0  0  0  0  0  0  0  0  0
    7.9176   -3.9207   -0.7039 H   0  0  0  0  0  0  0  0  0  0  0  0
    7.3816   -3.1867    0.8940 H   0  0  0  0  0  0  0  0  0  0  0  0
    5.5401   -4.1003   -0.6074 H   0  0  0  0  0  0  0  0  0  0  0  0
    6.0688   -2.9514   -1.8796 H   0  0  0  0  0  0  0  0  0  0  0  0
    3.2850   -0.6310    1.2543 H   0  0  0  0  0  0  0  0  0  0  0  0
    1.4730    1.0186    1.6444 H   0  0  0  0  0  0  0  0  0  0  0  0
  1  2  1  0
  2  3  1  0
  3  4  1  0
  4  5  1  0
  5  6  1  0
  6  7  1  0
  7  8  1  0
  6  9  1  0
  9 10  2  0
 10 11  1  0
 11 12  1  0
 12 13  1  0
 13 14  1  0
 14 15  2  0
 15 16  1  0
 15 17  1  0
 17 18  1  0
 11 19  2  0
 19 20  1  0
 20 21  1  0
 21 22  1  0
 22 23  2  0
 23 24  1  0
 24 25  2  0
 25 26  1  0
 26 27  1  0
 27 28  1  0
 28 29  1  0
 29 30  1  0
 30 31  1  0
 31 32  1  0
 25 33  1  0
 33 34  2  0
 20 35  2  0
  8  3  1  0
 35  9  1  0
 18 13  2  0
 34 22  1  0
 32 27  1  0
  1 36  1  0
  1 37  1  0
  1 38  1  0
  2 39  1  0
  2 40  1  0
  4 41  1  0
  4 42  1  0
  5 43  1  0
  5 44  1  0
  7 45  1  0
  7 46  1  0
  8 47  1  0
  8 48  1  0
 10 49  1  0
 12 50  1  0
 14 51  1  0
 16 52  1  0
 16 53  1  0
 16 54  1  0
 17 55  1  0
 23 56  1  0
 24 57  1  0
 26 58  1  0
 27 59  1  0
 28 60  1  0
 28 61  1  0
 29 62  1  0
 29 63  1  0
 30 64  1  0
 30 65  1  0
 31 66  1  0
 31 67  1  0
 32 68  1  0
 32 69  1  0
 33 70  1  0
 34 71  1  0
M  END
$$$$
[H]c1c([H])c(S(=O)(=O)N([H])C(=O)[C@@]([H])(N([H])[H])C([H])([H])C([H])(C([H])([H])[H])C([H])([H])[H])c([H])c([H])c1N([H])[H]
     RDKit          3D

 38 38  0  0  0  0  0  0  0  0999 V2000
   -5.0146   -0.1509   -1.0348 C   0  0  0  0  0  0  0  0  0  0  0  0
   -4.1881   -0.7844    0.0348 C   0  0  0  0  0  0  0  0  0  0  0  0
   -5.0902   -1.1409    1.1905 C   0  0  0  0  0  0  0  0  0  0  0  0
   -3.0683    0.0679    0.5398 C   0  0  0  0  0  0  0  0  0  0  0  0
   -2.0902    0.4364   -0.5549 C   0  0  2  0  0  0  0  0  0  0  0  0
   -1.5426   -0.7852   -1.0895 N   0  0  0  0  0  0  0  0  0  0  0  0
   -1.0178    1.2651    0.0168 C   0  0  0  0  0  0  0  0  0  0  0  0
   -1.2872    2.3682    0.5277 O   0  0  0  0  0  0  0  0  0  0  0  0
    0.3182    0.8160   -0.0105 N   0  0  0  0  0  0  0  0  0  0  0  0
    1.5956    1.7736    0.6561 S   0  0  0  0  0  0  0  0  0  0  0  0
    1.2679    2.1199    2.0730 O   0  0  0  0  0  0  0  0  0  0  0  0
    1.7342    3.0213   -0.1555 O   0  0  0  0  0  0  0  0  0  0  0  0
    3.0879    0.8707    0.5456 C   0  0  0  0  0  0  0  0  0  0  0  0
    3.9000    0.9809   -0.5752 C   0  0  0  0  0  0  0  0  0  0  0  0
    5.0736    0.2609   -0.6454 C   0  0  0  0  0  0  0  0  0  0  0  0
    5.4796   -0.5752    0.3648 C   0  0  0  0  0  0  0  0  0  0  0  0
    6.6851   -1.3007    0.2688 N   0  0  0  0  0  0  0  0  0  0  0  0
    4.6870   -0.6996    1.4881 C   0  0  0  0  0  0  0  0  0  0  0  0
    3.5185    0.0204    1.5525 C   0  0  0  0  0  0  0  0  0  0  0  0
   -4.7914    0.9117   -1.2273 H   0  0  0  0  0  0  0  0  0  0  0  0
   -4.8850   -0.6969   -2.0087 H   0  0  0  0  0  0  0  0  0  0  0  0
   -6.1023   -0.2194   -0.8069 H   0  0  0  0  0  0  0  0  0  0  0  0
   -3.7469   -1.7385   -0.3395 H   0  0  0  0  0  0  0  0  0  0  0  0
   -6.0303   -1.5561    0.7890 H   0  0  0  0  0  0  0  0  0  0  0  0
   -4.6156   -1.8434    1.8999 H   0  0  0  0  0  0  0  0  0  0  0  0
   -5.3524   -0.1876    1.7022 H   0  0  0  0  0  0  0  0  0  0  0  0
   -3.4779    0.9541    1.0635 H   0  0  0  0  0  0  0  0  0  0  0  0
   -2.5067   -0.5230    1.2890 H   0  0  0  0  0  0  0  0  0  0  0  0
   -2.5704    1.0260   -1.3623 H   0  0  0  0  0  0  0  0  0  0  0  0
   -1.0905   -1.3359   -0.3345 H   0  0  0  0  0  0  0  0  0  0  0  0
   -0.9264   -0.6261   -1.9139 H   0  0  0  0  0  0  0  0  0  0  0  0
    0.5420   -0.1127   -0.4415 H   0  0  0  0  0  0  0  0  0  0  0  0
    3.5999    1.6336   -1.3832 H   0  0  0  0  0  0  0  0  0  0  0  0
    5.7227    0.3334   -1.5135 H   0  0  0  0  0  0  0  0  0  0  0  0
    7.1899   -1.4147   -0.6328 H   0  0  0  0  0  0  0  0  0  0  0  0
    7.0932   -1.7402    1.1168 H   0  0  0  0  0  0  0  0  0  0  0  0
    5.0162   -1.3653    2.2853 H   0  0  0  0  0  0  0  0  0  0  0  0
    2.8833   -0.0633    2.4242 H   0  0  0  0  0  0  0  0  0  0  0  0
  1  2  1  0
  2  3  1  0
  2  4  1  0
  4  5  1  0
  5  6  1  0
  5  7  1  0
  7  8  2  0
  7  9  1  0
  9 10  1  0
 10 11  2  0
 10 12  2  0
 10 13  1  0
 13 14  2  0
 14 15  1  0
 15 16  2  0
 16 17  1  0
 16 18  1  0
 18 19  2  0
 19 13  1  0
  1 20  1  0
  1 21  1  0
  1 22  1  0
  2 23  1  0
  3 24  1  0
  3 25  1  0
  3 26  1  0
  4 27  1  0
  4 28  1  0
  5 29  1  6
  6 30  1  0
  6 31  1  0
  9 32  1  0
 14 33  1  0
 15 34  1  0
 17 35  1  0
 17 36  1  0
 18 37  1  0
 19 38  1  0
M  END
$$$$
[H]OC(=O)C([H])(OC(=O)C([H])([H])C([H])([H])C([H])([H])C([H])([H])C([H])([H])C([H])([H])C([H])([H])C(=O)N([H])C([H])([H])C([H])([H])C([H])([H])C([H])([H])N([H])C(=O)C([H])([H])C([H])([H])C([H])([H])C([H])([H])C(=O)N([H])C([H])([H])C([H])([H])C([H])([H])OC([H])([H])C1([H])C([H])([H])C([H])([H])C([H])([H])C([H])([H])C([H])([H])C([H])([H])C1([H])[H])[C@@]([H])(OC(=O)N([H])C([H])([H])C([H])([H])C(=O)N([H])c1c([H])c([H])nc([H])c1[H])[C@]([H])(O[H])C(=O)O[H]
     RDKit          3D

137138  0  0  0  0  0  0  0  0999 V2000
  -13.2018    0.8486    4.1241 O   0  0  0  0  0  0  0  0  0  0  0  0
  -12.0300    0.0283    3.9849 C   0  0  1  0  0  0  0  0  0  0  0  0
  -11.3516    0.4965    2.6627 C   0  0  2  0  0  0  0  0  0  0  0  0
  -12.3134    0.3581    1.6467 O   0  0  0  0  0  0  0  0  0  0  0  0
  -13.1381    1.4659    1.2363 C   0  0  0  0  0  0  0  0  0  0  0  0
  -12.8227    2.5086    1.9463 O   0  0  0  0  0  0  0  0  0  0  0  0
  -14.0601    1.3742    0.3000 N   0  0  0  0  0  0  0  0  0  0  0  0
  -15.0870    1.3645   -0.7050 C   0  0  0  0  0  0  0  0  0  0  0  0
  -15.2092   -0.0210   -1.3732 C   0  0  0  0  0  0  0  0  0  0  0  0
  -16.1802    0.1755   -2.5268 C   0  0  0  0  0  0  0  0  0  0  0  0
  -16.5678    1.3062   -2.7523 O   0  0  0  0  0  0  0  0  0  0  0  0
  -16.5779   -0.9569   -3.2804 N   0  0  0  0  0  0  0  0  0  0  0  0
  -17.4448   -0.9521   -4.4138 C   0  0  0  0  0  0  0  0  0  0  0  0
  -18.1771    0.1236   -4.7934 C   0  0  0  0  0  0  0  0  0  0  0  0
  -18.9369    0.0344   -5.9880 C   0  0  0  0  0  0  0  0  0  0  0  0
  -18.8891   -1.0949   -6.6577 N   0  0  0  0  0  0  0  0  0  0  0  0
  -18.2121   -2.1790   -6.3576 C   0  0  0  0  0  0  0  0  0  0  0  0
  -17.4467   -2.1258   -5.1823 C   0  0  0  0  0  0  0  0  0  0  0  0
  -10.0607   -0.1702    2.5145 C   0  0  0  0  0  0  0  0  0  0  0  0
   -9.2390    0.2791    1.4008 O   0  0  0  0  0  0  0  0  0  0  0  0
   -8.0559    0.9338    1.5637 C   0  0  0  0  0  0  0  0  0  0  0  0
   -7.6564    1.2427    2.7162 O   0  0  0  0  0  0  0  0  0  0  0  0
   -7.1802    1.3116    0.4158 C   0  0  0  0  0  0  0  0  0  0  0  0
   -6.1407    2.3255    0.6977 C   0  0  0  0  0  0  0  0  0  0  0  0
   -5.1568    2.4394   -0.4172 C   0  0  0  0  0  0  0  0  0  0  0  0
   -3.9900    1.5147   -0.3899 C   0  0  0  0  0  0  0  0  0  0  0  0
   -4.2844    0.1095   -0.1256 C   0  0  0  0  0  0  0  0  0  0  0  0
   -3.0673   -0.8187   -0.1472 C   0  0  0  0  0  0  0  0  0  0  0  0
   -1.9050   -0.2927    0.6405 C   0  0  0  0  0  0  0  0  0  0  0  0
   -0.8880   -1.3688    0.7422 C   0  0  0  0  0  0  0  0  0  0  0  0
   -1.0452   -2.2224    1.6608 O   0  0  0  0  0  0  0  0  0  0  0  0
    0.2239   -1.4315   -0.1723 N   0  0  0  0  0  0  0  0  0  0  0  0
    1.2037   -2.4734    0.0176 C   0  0  0  0  0  0  0  0  0  0  0  0
    1.9803   -2.2433    1.2904 C   0  0  0  0  0  0  0  0  0  0  0  0
    2.9663   -3.3666    1.5196 C   0  0  0  0  0  0  0  0  0  0  0  0
    3.9486   -3.5102    0.3449 C   0  0  0  0  0  0  0  0  0  0  0  0
    4.7035   -2.3747    0.0998 N   0  0  0  0  0  0  0  0  0  0  0  0
    5.4379   -1.2868   -0.1474 C   0  0  0  0  0  0  0  0  0  0  0  0
    6.3432   -1.1549   -1.0605 O   0  0  0  0  0  0  0  0  0  0  0  0
    5.3262    0.0164    0.6516 C   0  0  0  0  0  0  0  0  0  0  0  0
    6.7105    0.5198    0.9314 C   0  0  0  0  0  0  0  0  0  0  0  0
    6.6973    1.8509    1.6337 C   0  0  0  0  0  0  0  0  0  0  0  0
    8.1609    2.1028    2.0476 C   0  0  0  0  0  0  0  0  0  0  0  0
    9.0106    2.1245    0.8706 C   0  0  0  0  0  0  0  0  0  0  0  0
    8.5704    2.3855   -0.2701 O   0  0  0  0  0  0  0  0  0  0  0  0
   10.4010    1.8231    1.0139 N   0  0  0  0  0  0  0  0  0  0  0  0
   11.2847    1.7661   -0.1470 C   0  0  0  0  0  0  0  0  0  0  0  0
   10.8576    0.6271   -1.0797 C   0  0  0  0  0  0  0  0  0  0  0  0
   11.8247    0.6000   -2.2441 C   0  0  0  0  0  0  0  0  0  0  0  0
   13.0740    0.3596   -1.6706 O   0  0  0  0  0  0  0  0  0  0  0  0
   14.0904    0.2368   -2.6150 C   0  0  0  0  0  0  0  0  0  0  0  0
   15.4119   -0.0031   -1.8389 C   0  0  0  0  0  0  0  0  0  0  0  0
   15.1855   -1.2631   -1.0783 C   0  0  0  0  0  0  0  0  0  0  0  0
   16.3735   -1.8485   -0.4123 C   0  0  0  0  0  0  0  0  0  0  0  0
   17.5762   -1.0034   -0.2498 C   0  0  0  0  0  0  0  0  0  0  0  0
   17.6941   -0.3085    1.0947 C   0  0  0  0  0  0  0  0  0  0  0  0
   17.2623    1.1431    0.8419 C   0  0  0  0  0  0  0  0  0  0  0  0
   15.7710    1.0481    0.4551 C   0  0  0  0  0  0  0  0  0  0  0  0
   15.5936    1.2380   -1.0044 C   0  0  0  0  0  0  0  0  0  0  0  0
  -10.1927   -1.6181    2.2527 C   0  0  0  0  0  0  0  0  0  0  0  0
   -9.5365   -2.1939    1.1695 O   0  0  0  0  0  0  0  0  0  0  0  0
  -10.8649   -2.3765    2.9635 O   0  0  0  0  0  0  0  0  0  0  0  0
  -11.1672    0.2624    5.1462 C   0  0  0  0  0  0  0  0  0  0  0  0
  -11.4535    1.3884    5.9704 O   0  0  0  0  0  0  0  0  0  0  0  0
  -10.1972   -0.4143    5.5069 O   0  0  0  0  0  0  0  0  0  0  0  0
  -13.8472    0.2799    4.5995 H   0  0  0  0  0  0  0  0  0  0  0  0
  -12.4129   -0.9723    3.9428 H   0  0  0  0  0  0  0  0  0  0  0  0
  -11.2192    1.5966    2.9234 H   0  0  0  0  0  0  0  0  0  0  0  0
  -14.4097    2.6945    0.5580 H   0  0  0  0  0  0  0  0  0  0  0  0
  -16.0985    1.5352   -0.2598 H   0  0  0  0  0  0  0  0  0  0  0  0
  -14.8242    2.0461   -1.5185 H   0  0  0  0  0  0  0  0  0  0  0  0
  -15.6794   -0.7442   -0.6887 H   0  0  0  0  0  0  0  0  0  0  0  0
  -14.2320   -0.3366   -1.7532 H   0  0  0  0  0  0  0  0  0  0  0  0
  -16.2098   -1.9071   -2.9594 H   0  0  0  0  0  0  0  0  0  0  0  0
  -18.2169    1.0232   -4.2651 H   0  0  0  0  0  0  0  0  0  0  0  0
  -19.5191    0.8662   -6.3280 H   0  0  0  0  0  0  0  0  0  0  0  0
  -18.2146   -3.0859   -6.9545 H   0  0  0  0  0  0  0  0  0  0  0  0
  -16.8786   -2.9804   -4.8967 H   0  0  0  0  0  0  0  0  0  0  0  0
   -9.4333    0.0637    3.4105 H   0  0  0  0  0  0  0  0  0  0  0  0
   -6.8405    0.3963   -0.0300 H   0  0  0  0  0  0  0  0  0  0  0  0
   -7.9100    1.7224   -0.3961 H   0  0  0  0  0  0  0  0  0  0  0  0
   -6.5944    3.3541    0.8373 H   0  0  0  0  0  0  0  0  0  0  0  0
   -5.6481    2.1016    1.6700 H   0  0  0  0  0  0  0  0  0  0  0  0
   -5.6601    2.3242   -1.4413 H   0  0  0  0  0  0  0  0  0  0  0  0
   -4.7278    3.4921   -0.4687 H   0  0  0  0  0  0  0  0  0  0  0  0
   -3.2107    1.9473    0.3157 H   0  0  0  0  0  0  0  0  0  0  0  0
   -3.4978    1.6243   -1.4164 H   0  0  0  0  0  0  0  0  0  0  0  0
   -4.9234   -0.2786   -0.9594 H   0  0  0  0  0  0  0  0  0  0  0  0
   -4.8333   -0.0203    0.8185 H   0  0  0  0  0  0  0  0  0  0  0  0
   -2.8004   -0.9575   -1.2277 H   0  0  0  0  0  0  0  0  0  0  0  0
   -3.3746   -1.7895    0.2275 H   0  0  0  0  0  0  0  0  0  0  0  0
   -2.2075   -0.0308    1.6934 H   0  0  0  0  0  0  0  0  0  0  0  0
   -1.4946    0.6274    0.2234 H   0  0  0  0  0  0  0  0  0  0  0  0
    0.2565   -0.7150   -0.9217 H   0  0  0  0  0  0  0  0  0  0  0  0
    0.6881   -3.4650    0.1764 H   0  0  0  0  0  0  0  0  0  0  0  0
    1.8191   -2.5998   -0.8675 H   0  0  0  0  0  0  0  0  0  0  0  0
    1.3238   -2.1976    2.1567 H   0  0  0  0  0  0  0  0  0  0  0  0
    2.4757   -1.2443    1.1858 H   0  0  0  0  0  0  0  0  0  0  0  0
    3.4913   -3.1894    2.4741 H   0  0  0  0  0  0  0  0  0  0  0  0
    2.3680   -4.2903    1.6378 H   0  0  0  0  0  0  0  0  0  0  0  0
    3.3098   -3.9186   -0.4758 H   0  0  0  0  0  0  0  0  0  0  0  0
    4.5904   -4.4116    0.6644 H   0  0  0  0  0  0  0  0  0  0  0  0
    5.2687   -3.0228   -0.9664 H   0  0  0  0  0  0  0  0  0  0  0  0
    4.7460    0.7604    0.1435 H   0  0  0  0  0  0  0  0  0  0  0  0
    4.8254   -0.2296    1.6034 H   0  0  0  0  0  0  0  0  0  0  0  0
    7.2151    0.6462   -0.0575 H   0  0  0  0  0  0  0  0  0  0  0  0
    7.3257   -0.2312    1.4952 H   0  0  0  0  0  0  0  0  0  0  0  0
    6.3514    2.6775    1.0098 H   0  0  0  0  0  0  0  0  0  0  0  0
    6.1316    1.7757    2.6003 H   0  0  0  0  0  0  0  0  0  0  0  0
    8.4112    1.2348    2.7260 H   0  0  0  0  0  0  0  0  0  0  0  0
    8.2046    3.0043    2.6992 H   0  0  0  0  0  0  0  0  0  0  0  0
   10.7883    1.6474    1.9494 H   0  0  0  0  0  0  0  0  0  0  0  0
   11.1194    2.7086   -0.7701 H   0  0  0  0  0  0  0  0  0  0  0  0
   12.3184    1.7467    0.1568 H   0  0  0  0  0  0  0  0  0  0  0  0
   10.9331   -0.3314   -0.4873 H   0  0  0  0  0  0  0  0  0  0  0  0
    9.8499    0.8111   -1.4525 H   0  0  0  0  0  0  0  0  0  0  0  0
   11.8863    1.5848   -2.7761 H   0  0  0  0  0  0  0  0  0  0  0  0
   11.6253   -0.2270   -2.9418 H   0  0  0  0  0  0  0  0  0  0  0  0
   14.1578    1.1449   -3.2574 H   0  0  0  0  0  0  0  0  0  0  0  0
   13.8696   -0.6204   -3.2574 H   0  0  0  0  0  0  0  0  0  0  0  0
   16.1680   -0.0496   -2.6484 H   0  0  0  0  0  0  0  0  0  0  0  0
   14.2981   -1.0865   -0.3936 H   0  0  0  0  0  0  0  0  0  0  0  0
   14.8007   -2.0277   -1.8135 H   0  0  0  0  0  0  0  0  0  0  0  0
   16.6574   -2.8199   -0.8832 H   0  0  0  0  0  0  0  0  0  0  0  0
   16.0381   -2.1871    0.6239 H   0  0  0  0  0  0  0  0  0  0  0  0
   17.7491   -0.2857   -1.0716 H   0  0  0  0  0  0  0  0  0  0  0  0
   18.4634   -1.6936   -0.2903 H   0  0  0  0  0  0  0  0  0  0  0  0
   18.7376   -0.2582    1.4491 H   0  0  0  0  0  0  0  0  0  0  0  0
   17.0305   -0.7516    1.8503 H   0  0  0  0  0  0  0  0  0  0  0  0
   17.4245    1.7694    1.7393 H   0  0  0  0  0  0  0  0  0  0  0  0
   17.7917    1.5700   -0.0377 H   0  0  0  0  0  0  0  0  0  0  0  0
   15.3006    0.1537    0.9066 H   0  0  0  0  0  0  0  0  0  0  0  0
   15.2835    1.9177    0.9836 H   0  0  0  0  0  0  0  0  0  0  0  0
   16.4908    1.7918   -1.3727 H   0  0  0  0  0  0  0  0  0  0  0  0
   14.7329    1.9602   -1.1481 H   0  0  0  0  0  0  0  0  0  0  0  0
   -9.0444   -1.5926    0.5058 H   0  0  0  0  0  0  0  0  0  0  0  0
  -12.3103    1.3253    6.5227 H   0  0  0  0  0  0  0  0  0  0  0  0
  1  2  1  0
  2  3  1  0
  3  4  1  0
  4  5  1  0
  5  6  2  0
  5  7  1  0
  7  8  1  0
  8  9  1  0
  9 10  1  0
 10 11  2  0
 10 12  1  0
 12 13  1  0
 13 14  2  0
 14 15  1  0
 15 16  2  0
 16 17  1  0
 17 18  2  0
  3 19  1  0
 19 20  1  0
 20 21  1  0
 21 22  2  0
 21 23  1  0
 23 24  1  0
 24 25  1  0
 25 26  1  0
 26 27  1  0
 27 28  1  0
 28 29  1  0
 29 30  1  0
 30 31  2  0
 30 32  1  0
 32 33  1  0
 33 34  1  0
 34 35  1  0
 35 36  1  0
 36 37  1  0
 37 38  1  0
 38 39  2  0
 38 40  1  0
 40 41  1  0
 41 42  1  0
 42 43  1  0
 43 44  1  0
 44 45  2  0
 44 46  1  0
 46 47  1  0
 47 48  1  0
 48 49  1  0
 49 50  1  0
 50 51  1  0
 51 52  1  0
 52 53  1  0
 53 54  1  0
 54 55  1  0
 55 56  1  0
 56 57  1  0
 57 58  1  0
 58 59  1  0
 19 60  1  0
 60 61  1  0
 60 62  2  0
  2 63  1  0
 63 64  1  0
 63 65  2  0
 18 13  1  0
 59 52  1  0
  1 66  1  0
  2 67  1  6
  3 68  1  1
  7 69  1  0
  8 70  1  0
  8 71  1  0
  9 72  1  0
  9 73  1  0
 12 74  1  0
 14 75  1  0
 15 76  1  0
 17 77  1  0
 18 78  1  0
 19 79  1  0
 23 80  1  0
 23 81  1  0
 24 82  1  0
 24 83  1  0
 25 84  1  0
 25 85  1  0
 26 86  1  0
 26 87  1  0
 27 88  1  0
 27 89  1  0
 28 90  1  0
 28 91  1  0
 29 92  1  0
 29 93  1  0
 32 94  1  0
 33 95  1  0
 33 96  1  0
 34 97  1  0
 34 98  1  0
 35 99  1  0
 35100  1  0
 36101  1  0
 36102  1  0
 37103  1  0
 40104  1  0
 40105  1  0
 41106  1  0
 41107  1  0
 42108  1  0
 42109  1  0
 43110  1  0
 43111  1  0
 46112  1  0
 47113  1  0
 47114  1  0
 48115  1  0
 48116  1  0
 49117  1  0
 49118  1  0
 51119  1  0
 51120  1  0
 52121  1  0
 53122  1  0
 53123  1  0
 54124  1  0
 54125  1  0
 55126  1  0
 55127  1  0
 56128  1  0
 56129  1  0
 57130  1  0
 57131  1  0
 58132  1  0
 58133  1  0
 59134  1  0
 59135  1  0
 61136  1  0
 64137  1  0
M  END
$$$$
[H]c1nn2c(N([H])C3([H])C([H])([H])C3([H])[H])nc(N([H])c3c([H])c([H])c(N4C([H])([H])C([H])([H])N(C([H])([H])[H])C([H])([H])C4([H])[H])c(Cl)c3[H])nc2c1C#N
     RDKit          3D

 52 56  0  0  0  0  0  0  0  0999 V2000
   -7.8400   -0.0996   -1.4532 C   0  0  0  0  0  0  0  0  0  0  0  0
   -7.0117    0.1266   -0.2882 N   0  0  0  0  0  0  0  0  0  0  0  0
   -6.3498   -1.0961    0.1130 C   0  0  0  0  0  0  0  0  0  0  0  0
   -4.9809   -0.8112    0.7093 C   0  0  0  0  0  0  0  0  0  0  0  0
   -4.1827   -0.2230   -0.3389 N   0  0  0  0  0  0  0  0  0  0  0  0
   -4.9023    0.6357   -1.2914 C   0  0  0  0  0  0  0  0  0  0  0  0
   -6.0738    1.2128   -0.5008 C   0  0  0  0  0  0  0  0  0  0  0  0
   -2.7970   -0.4137   -0.5032 C   0  0  0  0  0  0  0  0  0  0  0  0
   -2.3014   -0.9778   -1.6676 C   0  0  0  0  0  0  0  0  0  0  0  0
   -0.9588   -1.1593   -1.8206 C   0  0  0  0  0  0  0  0  0  0  0  0
   -0.0364   -0.7830   -0.8093 C   0  0  0  0  0  0  0  0  0  0  0  0
    1.3293   -1.0199   -1.0161 N   0  0  0  0  0  0  0  0  0  0  0  0
    2.4160   -0.4059   -0.4161 C   0  0  0  0  0  0  0  0  0  0  0  0
    3.6982   -0.7916   -0.7404 N   0  0  0  0  0  0  0  0  0  0  0  0
    4.7754   -0.2079   -0.2005 C   0  0  0  0  0  0  0  0  0  0  0  0
    6.0771   -0.6659   -0.5825 N   0  0  0  0  0  0  0  0  0  0  0  0
    7.3061   -0.1260   -0.1003 C   0  0  0  0  0  0  0  0  0  0  0  0
    8.5879   -0.8506   -0.6313 C   0  0  0  0  0  0  0  0  0  0  0  0
    8.2157   -0.9307    0.7994 C   0  0  0  0  0  0  0  0  0  0  0  0
    4.5755    0.7831    0.6832 N   0  0  0  0  0  0  0  0  0  0  0  0
    5.4549    1.5054    1.3466 N   0  0  0  0  0  0  0  0  0  0  0  0
    4.7963    2.3833    2.1231 C   0  0  0  0  0  0  0  0  0  0  0  0
    3.4361    2.2265    1.9590 C   0  0  0  0  0  0  0  0  0  0  0  0
    2.3379    2.9225    2.5645 C   0  0  0  0  0  0  0  0  0  0  0  0
    1.4575    3.5015    3.0463 N   0  0  0  0  0  0  0  0  0  0  0  0
    3.3243    1.1938    1.0304 C   0  0  0  0  0  0  0  0  0  0  0  0
    2.2932    0.5851    0.4687 N   0  0  0  0  0  0  0  0  0  0  0  0
   -0.5370   -0.2291    0.3333 C   0  0  0  0  0  0  0  0  0  0  0  0
   -1.9181   -0.0450    0.4842 C   0  0  0  0  0  0  0  0  0  0  0  0
   -2.5200    0.6672    1.9581 Cl  0  0  0  0  0  0  0  0  0  0  0  0
   -7.5967    0.6093   -2.2794 H   0  0  0  0  0  0  0  0  0  0  0  0
   -8.9055    0.0980   -1.1404 H   0  0  0  0  0  0  0  0  0  0  0  0
   -7.7058   -1.1179   -1.8455 H   0  0  0  0  0  0  0  0  0  0  0  0
   -6.2036   -1.7890   -0.7271 H   0  0  0  0  0  0  0  0  0  0  0  0
   -6.9630   -1.5540    0.9182 H   0  0  0  0  0  0  0  0  0  0  0  0
   -5.0540   -0.1796    1.6147 H   0  0  0  0  0  0  0  0  0  0  0  0
   -4.5532   -1.8018    0.9838 H   0  0  0  0  0  0  0  0  0  0  0  0
   -4.2700    1.4190   -1.7079 H   0  0  0  0  0  0  0  0  0  0  0  0
   -5.2831   -0.0638   -2.0722 H   0  0  0  0  0  0  0  0  0  0  0  0
   -6.5566    2.0268   -1.0492 H   0  0  0  0  0  0  0  0  0  0  0  0
   -5.7260    1.5246    0.5128 H   0  0  0  0  0  0  0  0  0  0  0  0
   -3.0359   -1.2519   -2.4161 H   0  0  0  0  0  0  0  0  0  0  0  0
   -0.5594   -1.5963   -2.7200 H   0  0  0  0  0  0  0  0  0  0  0  0
    1.5607   -1.7831   -1.7372 H   0  0  0  0  0  0  0  0  0  0  0  0
    6.1253   -1.4620   -1.2723 H   0  0  0  0  0  0  0  0  0  0  0  0
    7.4365    0.9834   -0.1707 H   0  0  0  0  0  0  0  0  0  0  0  0
    8.4155   -1.7627   -1.2252 H   0  0  0  0  0  0  0  0  0  0  0  0
    9.4359   -0.2408   -0.9304 H   0  0  0  0  0  0  0  0  0  0  0  0
    7.7453   -1.8728    1.1712 H   0  0  0  0  0  0  0  0  0  0  0  0
    8.7315   -0.2991    1.5708 H   0  0  0  0  0  0  0  0  0  0  0  0
    5.2151    3.1326    2.8027 H   0  0  0  0  0  0  0  0  0  0  0  0
    0.0755    0.0741    1.1655 H   0  0  0  0  0  0  0  0  0  0  0  0
  1  2  1  0
  2  3  1  0
  3  4  1  0
  4  5  1  0
  5  6  1  0
  6  7  1  0
  5  8  1  0
  8  9  2  0
  9 10  1  0
 10 11  2  0
 11 12  1  0
 12 13  1  0
 13 14  1  0
 14 15  2  0
 15 16  1  0
 16 17  1  0
 17 18  1  0
 18 19  1  0
 15 20  1  0
 20 21  1  0
 21 22  2  0
 22 23  1  0
 23 24  1  0
 24 25  3  0
 23 26  2  0
 26 27  1  0
 11 28  1  0
 28 29  2  0
 29 30  1  0
  7  2  1  0
 29  8  1  0
 27 13  2  0
 19 17  1  0
 26 20  1  0
  1 31  1  0
  1 32  1  0
  1 33  1  0
  3 34  1  0
  3 35  1  0
  4 36  1  0
  4 37  1  0
  6 38  1  0
  6 39  1  0
  7 40  1  0
  7 41  1  0
  9 42  1  0
 10 43  1  0
 12 44  1  0
 16 45  1  0
 17 46  1  0
 18 47  1  0
 18 48  1  0
 19 49  1  0
 19 50  1  0
 22 51  1  0
 28 52  1  0
M  END
$$$$
[H]Oc1c([H])c([H])c(C([H])([H])[C@@]([H])(C(=O)N([H])[C@]([H])(C(=O)N([H])[C@]([H])(C(=O)N([H])c2c([H])c([H])c([H])c3c([H])c([H])c([H])c([H])c23)C([H])([H])C([H])([H])C([H])([H])C([H])([H])N([H])[H])C([H])([H])C([H])(C([H])([H])[H])C([H])([H])[H])N([H])C(=O)c2c([H])c([H])c([H])c3c2OC([H])([H])C([H])([H])N([H])C3([H])[H])c([H])c1[H]
     RDKit          3D

103107  0  0  0  0  0  0  0  0999 V2000
   -1.6228    4.1328   -0.9509 C   0  0  0  0  0  0  0  0  0  0  0  0
   -0.7070    4.6880    0.0657 C   0  0  0  0  0  0  0  0  0  0  0  0
   -1.3748    5.9582    0.6239 C   0  0  0  0  0  0  0  0  0  0  0  0
   -0.3486    3.8288    1.2182 C   0  0  0  0  0  0  0  0  0  0  0  0
    0.3196    2.5640    1.0060 C   0  0  2  0  0  0  0  0  0  0  0  0
    1.5957    2.6237    0.3202 N   0  0  0  0  0  0  0  0  0  0  0  0
    2.6479    1.7252    0.5688 C   0  0  0  0  0  0  0  0  0  0  0  0
    2.4194    0.8124    1.4386 O   0  0  0  0  0  0  0  0  0  0  0  0
    3.9675    1.7135   -0.0501 C   0  0  2  0  0  0  0  0  0  0  0  0
    4.0084    2.1352   -1.4335 C   0  0  0  0  0  0  0  0  0  0  0  0
    3.3268    1.4836   -2.5031 C   0  0  0  0  0  0  0  0  0  0  0  0
    2.0953    1.7198   -3.0413 C   0  0  0  0  0  0  0  0  0  0  0  0
    1.5187    1.0541   -4.0904 C   0  0  0  0  0  0  0  0  0  0  0  0
    2.2508    0.0243   -4.6848 C   0  0  0  0  0  0  0  0  0  0  0  0
    1.7129   -0.6705   -5.7406 O   0  0  0  0  0  0  0  0  0  0  0  0
    3.4950   -0.2570   -4.1847 C   0  0  0  0  0  0  0  0  0  0  0  0
    4.0308    0.4298   -3.1385 C   0  0  0  0  0  0  0  0  0  0  0  0
    4.7053    0.4976    0.2772 N   0  0  0  0  0  0  0  0  0  0  0  0
    5.8345    0.4013    1.0801 C   0  0  0  0  0  0  0  0  0  0  0  0
    6.2179    1.5558    1.5303 O   0  0  0  0  0  0  0  0  0  0  0  0
    6.6279   -0.7070    1.4948 C   0  0  0  0  0  0  0  0  0  0  0  0
    7.7737   -0.4892    2.2233 C   0  0  0  0  0  0  0  0  0  0  0  0
    8.6090   -1.4897    2.6162 C   0  0  0  0  0  0  0  0  0  0  0  0
    8.2955   -2.7892    2.2692 C   0  0  0  0  0  0  0  0  0  0  0  0
    7.1745   -3.0789    1.5492 C   0  0  0  0  0  0  0  0  0  0  0  0
    7.0702   -4.5389    1.3031 C   0  0  0  0  0  0  0  0  0  0  0  0
    5.7438   -5.0511    1.2681 N   0  0  0  0  0  0  0  0  0  0  0  0
    4.9202   -4.5309    0.2000 C   0  0  0  0  0  0  0  0  0  0  0  0
    4.2017   -3.2617    0.6374 C   0  0  0  0  0  0  0  0  0  0  0  0
    5.1856   -2.2222    0.4428 O   0  0  0  0  0  0  0  0  0  0  0  0
    6.3498   -2.0252    1.1701 C   0  0  0  0  0  0  0  0  0  0  0  0
   -0.5029    1.4026    0.6618 C   0  0  0  0  0  0  0  0  0  0  0  0
    0.0259    0.5300   -0.1190 O   0  0  0  0  0  0  0  0  0  0  0  0
   -1.8039    1.2351    1.1637 N   0  0  0  0  0  0  0  0  0  0  0  0
   -2.6620    0.0958    0.9362 C   0  0  1  0  0  0  0  0  0  0  0  0
   -3.6009   -0.1494    2.0657 C   0  0  0  0  0  0  0  0  0  0  0  0
   -4.5445    0.9793    2.3648 C   0  0  0  0  0  0  0  0  0  0  0  0
   -5.4795    0.6643    3.5262 C   0  0  0  0  0  0  0  0  0  0  0  0
   -4.6933    0.3925    4.7977 C   0  0  0  0  0  0  0  0  0  0  0  0
   -5.6705    0.1131    5.8438 N   0  0  0  0  0  0  0  0  0  0  0  0
   -3.2632    0.0372   -0.4045 C   0  0  0  0  0  0  0  0  0  0  0  0
   -2.9654    0.8881   -1.2526 O   0  0  0  0  0  0  0  0  0  0  0  0
   -4.1729   -0.9972   -0.7183 N   0  0  0  0  0  0  0  0  0  0  0  0
   -4.8041   -1.2440   -1.9504 C   0  0  0  0  0  0  0  0  0  0  0  0
   -4.2771   -0.7960   -3.1291 C   0  0  0  0  0  0  0  0  0  0  0  0
   -4.8352   -1.1183   -4.3709 C   0  0  0  0  0  0  0  0  0  0  0  0
   -5.9529   -1.9156   -4.3763 C   0  0  0  0  0  0  0  0  0  0  0  0
   -6.5216   -2.3912   -3.2152 C   0  0  0  0  0  0  0  0  0  0  0  0
   -7.6585   -3.1595   -3.2977 C   0  0  0  0  0  0  0  0  0  0  0  0
   -8.2617   -3.6172   -2.1464 C   0  0  0  0  0  0  0  0  0  0  0  0
   -7.7174   -3.2987   -0.9300 C   0  0  0  0  0  0  0  0  0  0  0  0
   -6.5648   -2.5198   -0.8707 C   0  0  0  0  0  0  0  0  0  0  0  0
   -5.9316   -2.0433   -2.0001 C   0  0  0  0  0  0  0  0  0  0  0  0
   -1.2041    3.2400   -1.4985 H   0  0  0  0  0  0  0  0  0  0  0  0
   -2.6545    3.9256   -0.5796 H   0  0  0  0  0  0  0  0  0  0  0  0
   -1.7601    4.9105   -1.7560 H   0  0  0  0  0  0  0  0  0  0  0  0
    0.2074    5.0776   -0.4859 H   0  0  0  0  0  0  0  0  0  0  0  0
   -1.6165    6.6775   -0.1865 H   0  0  0  0  0  0  0  0  0  0  0  0
   -0.6667    6.4320    1.2993 H   0  0  0  0  0  0  0  0  0  0  0  0
   -2.2872    5.6810    1.2162 H   0  0  0  0  0  0  0  0  0  0  0  0
    0.3033    4.4978    1.8904 H   0  0  0  0  0  0  0  0  0  0  0  0
   -1.2735    3.7098    1.8457 H   0  0  0  0  0  0  0  0  0  0  0  0
    0.6935    2.2329    2.0838 H   0  0  0  0  0  0  0  0  0  0  0  0
    1.7239    3.3693   -0.3867 H   0  0  0  0  0  0  0  0  0  0  0  0
    4.5544    2.5049    0.5365 H   0  0  0  0  0  0  0  0  0  0  0  0
    3.6159    3.2192   -1.4344 H   0  0  0  0  0  0  0  0  0  0  0  0
    5.0799    2.3525   -1.8019 H   0  0  0  0  0  0  0  0  0  0  0  0
    1.5145    2.5175   -2.6082 H   0  0  0  0  0  0  0  0  0  0  0  0
    0.5292    1.3214   -4.4409 H   0  0  0  0  0  0  0  0  0  0  0  0
    0.8069   -0.4954   -6.1394 H   0  0  0  0  0  0  0  0  0  0  0  0
    4.0800   -1.0576   -4.6411 H   0  0  0  0  0  0  0  0  0  0  0  0
    5.0272    0.1493   -2.7939 H   0  0  0  0  0  0  0  0  0  0  0  0
    4.3022   -0.3244   -0.1873 H   0  0  0  0  0  0  0  0  0  0  0  0
    8.0535    0.5279    2.5218 H   0  0  0  0  0  0  0  0  0  0  0  0
    9.5143   -1.2502    3.1986 H   0  0  0  0  0  0  0  0  0  0  0  0
    9.0014   -3.5404    2.6093 H   0  0  0  0  0  0  0  0  0  0  0  0
    7.6497   -5.1314    2.0360 H   0  0  0  0  0  0  0  0  0  0  0  0
    7.6006   -4.7073    0.3192 H   0  0  0  0  0  0  0  0  0  0  0  0
    5.7925   -6.0799    1.1288 H   0  0  0  0  0  0  0  0  0  0  0  0
    4.1973   -5.2903   -0.1449 H   0  0  0  0  0  0  0  0  0  0  0  0
    5.5848   -4.2940   -0.6762 H   0  0  0  0  0  0  0  0  0  0  0  0
    3.8850   -3.3680    1.6780 H   0  0  0  0  0  0  0  0  0  0  0  0
    3.3380   -3.1452   -0.0365 H   0  0  0  0  0  0  0  0  0  0  0  0
   -2.2046    1.9934    1.7582 H   0  0  0  0  0  0  0  0  0  0  0  0
   -1.9178   -0.7801    0.9066 H   0  0  0  0  0  0  0  0  0  0  0  0
   -2.9374   -0.2762    2.9819 H   0  0  0  0  0  0  0  0  0  0  0  0
   -4.1224   -1.1016    1.9439 H   0  0  0  0  0  0  0  0  0  0  0  0
   -5.1442    1.3221    1.5244 H   0  0  0  0  0  0  0  0  0  0  0  0
   -3.9313    1.8570    2.7161 H   0  0  0  0  0  0  0  0  0  0  0  0
   -6.1302    1.5464    3.6728 H   0  0  0  0  0  0  0  0  0  0  0  0
   -6.1265   -0.1768    3.2579 H   0  0  0  0  0  0  0  0  0  0  0  0
   -4.1055    1.2785    5.0918 H   0  0  0  0  0  0  0  0  0  0  0  0
   -4.0009   -0.4541    4.6619 H   0  0  0  0  0  0  0  0  0  0  0  0
   -5.3241   -0.7431    6.3550 H   0  0  0  0  0  0  0  0  0  0  0  0
   -5.6732    0.8908    6.5379 H   0  0  0  0  0  0  0  0  0  0  0  0
   -4.3697   -1.6630    0.1053 H   0  0  0  0  0  0  0  0  0  0  0  0
   -3.3925   -0.1813   -3.1965 H   0  0  0  0  0  0  0  0  0  0  0  0
   -4.3848   -0.7403   -5.2838 H   0  0  0  0  0  0  0  0  0  0  0  0
   -6.4145   -2.1875   -5.3255 H   0  0  0  0  0  0  0  0  0  0  0  0
   -8.0970   -3.4201   -4.2532 H   0  0  0  0  0  0  0  0  0  0  0  0
   -9.1698   -4.2291   -2.1950 H   0  0  0  0  0  0  0  0  0  0  0  0
   -8.1452   -3.6251   -0.0036 H   0  0  0  0  0  0  0  0  0  0  0  0
   -6.1889   -2.2970    0.1140 H   0  0  0  0  0  0  0  0  0  0  0  0
  1  2  1  0
  2  3  1  0
  2  4  1  0
  4  5  1  0
  5  6  1  0
  6  7  1  0
  7  8  2  0
  7  9  1  0
  9 10  1  0
 10 11  1  0
 11 12  2  0
 12 13  1  0
 13 14  2  0
 14 15  1  0
 14 16  1  0
 16 17  2  0
  9 18  1  0
 18 19  1  0
 19 20  2  0
 19 21  1  0
 21 22  2  0
 22 23  1  0
 23 24  2  0
 24 25  1  0
 25 26  1  0
 26 27  1  0
 27 28  1  0
 28 29  1  0
 29 30  1  0
 30 31  1  0
  5 32  1  0
 32 33  2  0
 32 34  1  0
 34 35  1  0
 35 36  1  0
 36 37  1  0
 37 38  1  0
 38 39  1  0
 39 40  1  0
 35 41  1  0
 41 42  2  0
 41 43  1  0
 43 44  1  0
 44 45  2  0
 45 46  1  0
 46 47  2  0
 47 48  1  0
 48 49  2  0
 49 50  1  0
 50 51  2  0
 51 52  1  0
 52 53  2  0
 17 11  1  0
 31 21  1  0
 53 44  1  0
 31 25  2  0
 53 48  1  0
  1 54  1  0
  1 55  1  0
  1 56  1  0
  2 57  1  0
  3 58  1  0
  3 59  1  0
  3 60  1  0
  4 61  1  0
  4 62  1  0
  5 63  1  1
  6 64  1  0
  9 65  1  1
 10 66  1  0
 10 67  1  0
 12 68  1  0
 13 69  1  0
 15 70  1  0
 16 71  1  0
 17 72  1  0
 18 73  1  0
 22 74  1  0
 23 75  1  0
 24 76  1  0
 26 77  1  0
 26 78  1  0
 27 79  1  0
 28 80  1  0
 28 81  1  0
 29 82  1  0
 29 83  1  0
 34 84  1  0
 35 85  1  6
 36 86  1  0
 36 87  1  0
 37 88  1  0
 37 89  1  0
 38 90  1  0
 38 91  1  0
 39 92  1  0
 39 93  1  0
 40 94  1  0
 40 95  1  0
 43 96  1  0
 45 97  1  0
 46 98  1  0
 47 99  1  0
 49100  1  0
 50101  1  0
 51102  1  0
 52103  1  0
M  END
$$$$
[H]c1nc2c([H])c(-c3nnn(C([H])([H])[H])n3)sc2c(-c2c([H])c([H])c(N([H])C(=O)N([H])c3c([H])c([H])c([H])c(C([H])([H])[H])c3[H])c([H])c2[H])c1[H]
     RDKit          3D

 51 55  0  0  0  0  0  0  0  0999 V2000
   -7.9116    3.9074   -0.3093 C   0  0  0  0  0  0  0  0  0  0  0  0
   -7.0691    2.7098   -0.5735 C   0  0  0  0  0  0  0  0  0  0  0  0
   -7.2472    2.0420   -1.7765 C   0  0  0  0  0  0  0  0  0  0  0  0
   -6.4812    0.9325   -2.0466 C   0  0  0  0  0  0  0  0  0  0  0  0
   -5.5281    0.4695   -1.1283 C   0  0  0  0  0  0  0  0  0  0  0  0
   -5.3459    1.1146    0.0482 C   0  0  0  0  0  0  0  0  0  0  0  0
   -4.3911    0.7210    0.9971 N   0  0  0  0  0  0  0  0  0  0  0  0
   -3.1786    0.0713    0.6178 C   0  0  0  0  0  0  0  0  0  0  0  0
   -2.9199   -0.1607   -0.5932 O   0  0  0  0  0  0  0  0  0  0  0  0
   -2.3044   -0.2891    1.6527 N   0  0  0  0  0  0  0  0  0  0  0  0
   -1.0728   -0.9206    1.4748 C   0  0  0  0  0  0  0  0  0  0  0  0
   -0.3525   -0.8858    0.3262 C   0  0  0  0  0  0  0  0  0  0  0  0
    0.8652   -1.5696    0.2211 C   0  0  0  0  0  0  0  0  0  0  0  0
    1.3943   -2.3018    1.2539 C   0  0  0  0  0  0  0  0  0  0  0  0
    0.6490   -2.3257    2.4148 C   0  0  0  0  0  0  0  0  0  0  0  0
   -0.5442   -1.6628    2.5343 C   0  0  0  0  0  0  0  0  0  0  0  0
    2.6433   -2.9919    1.1300 C   0  0  0  0  0  0  0  0  0  0  0  0
    2.8486   -4.2954    1.5321 C   0  0  0  0  0  0  0  0  0  0  0  0
    4.1189   -4.7805    1.3260 C   0  0  0  0  0  0  0  0  0  0  0  0
    5.1121   -4.0929    0.7855 N   0  0  0  0  0  0  0  0  0  0  0  0
    4.9486   -2.7965    0.3734 C   0  0  0  0  0  0  0  0  0  0  0  0
    5.8896   -1.9989   -0.1897 C   0  0  0  0  0  0  0  0  0  0  0  0
    5.5057   -0.7335   -0.5243 C   0  0  0  0  0  0  0  0  0  0  0  0
    3.8709   -0.6807   -0.0562 S   0  0  0  0  0  0  0  0  0  0  0  0
    3.7091   -2.2707    0.5559 C   0  0  0  0  0  0  0  0  0  0  0  0
    6.3179    0.3265   -1.1447 C   0  0  0  0  0  0  0  0  0  0  0  0
    7.6028    0.2178   -1.4927 N   0  0  0  0  0  0  0  0  0  0  0  0
    7.9345    1.4015   -2.0134 N   0  0  0  0  0  0  0  0  0  0  0  0
    6.8912    2.2090   -1.9864 N   0  0  0  0  0  0  0  0  0  0  0  0
    6.8725    3.5817   -2.4681 C   0  0  0  0  0  0  0  0  0  0  0  0
    5.8676    1.5691   -1.4508 N   0  0  0  0  0  0  0  0  0  0  0  0
   -6.1431    2.2410    0.2918 C   0  0  0  0  0  0  0  0  0  0  0  0
   -7.2518    4.7691   -0.0084 H   0  0  0  0  0  0  0  0  0  0  0  0
   -8.6088    3.7702    0.5387 H   0  0  0  0  0  0  0  0  0  0  0  0
   -8.4631    4.2114   -1.1985 H   0  0  0  0  0  0  0  0  0  0  0  0
   -7.9784    2.4082   -2.4663 H   0  0  0  0  0  0  0  0  0  0  0  0
   -6.6301    0.4218   -2.9871 H   0  0  0  0  0  0  0  0  0  0  0  0
   -5.0062   -0.4164   -1.4392 H   0  0  0  0  0  0  0  0  0  0  0  0
   -4.5554    0.9034    2.0411 H   0  0  0  0  0  0  0  0  0  0  0  0
   -2.5932   -0.0645    2.6494 H   0  0  0  0  0  0  0  0  0  0  0  0
   -0.6707   -0.3227   -0.5426 H   0  0  0  0  0  0  0  0  0  0  0  0
    1.3762   -1.4940   -0.7268 H   0  0  0  0  0  0  0  0  0  0  0  0
    0.9833   -2.8797    3.2954 H   0  0  0  0  0  0  0  0  0  0  0  0
   -1.1238   -1.6849    3.4462 H   0  0  0  0  0  0  0  0  0  0  0  0
    2.0215   -4.8190    1.9646 H   0  0  0  0  0  0  0  0  0  0  0  0
    4.3118   -5.8167    1.6367 H   0  0  0  0  0  0  0  0  0  0  0  0
    6.9465   -2.3145   -0.3925 H   0  0  0  0  0  0  0  0  0  0  0  0
    6.1773    4.2150   -1.8721 H   0  0  0  0  0  0  0  0  0  0  0  0
    6.6078    3.6123   -3.5561 H   0  0  0  0  0  0  0  0  0  0  0  0
    7.9017    3.9921   -2.3870 H   0  0  0  0  0  0  0  0  0  0  0  0
   -5.9968    2.7514    1.2285 H   0  0  0  0  0  0  0  0  0  0  0  0
  1  2  1  0
  2  3  2  0
  3  4  1  0
  4  5  2  0
  5  6  1  0
  6  7  1  0
  7  8  1  0
  8  9  2  0
  8 10  1  0
 10 11  1  0
 11 12  2  0
 12 13  1  0
 13 14  2  0
 14 15  1  0
 15 16  2  0
 14 17  1  0
 17 18  2  0
 18 19  1  0
 19 20  2  0
 20 21  1  0
 21 22  1  0
 22 23  2  0
 23 24  1  0
 24 25  1  0
 23 26  1  0
 26 27  1  0
 27 28  2  0
 28 29  1  0
 29 30  1  0
 29 31  1  0
  6 32  2  0
 32  2  1  0
 16 11  1  0
 25 17  1  0
 31 26  2  0
 25 21  2  0
  1 33  1  0
  1 34  1  0
  1 35  1  0
  3 36  1  0
  4 37  1  0
  5 38  1  0
  7 39  1  0
 10 40  1  0
 12 41  1  0
 13 42  1  0
 15 43  1  0
 16 44  1  0
 18 45  1  0
 19 46  1  0
 22 47  1  0
 30 48  1  0
 30 49  1  0
 30 50  1  0
 32 51  1  0
M  END
$$$$
[H]OC1(c2c([H])c([H])c(Cl)c(Cl)c2[H])C([H])([H])C([H])([H])N(C([H])([H])c2nc3c([H])c([H])c(C#N)c([H])c3n2C([H])([H])[H])C([H])([H])C1([H])[H]
     RDKit          3D

 48 51  0  0  0  0  0  0  0  0999 V2000
   -2.8059   -1.7265   -1.0284 C   0  0  0  0  0  0  0  0  0  0  0  0
   -2.9191   -0.6838   -0.0482 N   0  0  0  0  0  0  0  0  0  0  0  0
   -2.0304   -0.3601    0.8611 C   0  0  0  0  0  0  0  0  0  0  0  0
   -0.6907   -0.8352    1.1646 C   0  0  0  0  0  0  0  0  0  0  0  0
    0.0521   -1.4514    0.1248 N   0  0  0  0  0  0  0  0  0  0  0  0
    0.3114   -0.6208   -1.0002 C   0  0  0  0  0  0  0  0  0  0  0  0
    1.6165    0.1143   -0.9909 C   0  0  0  0  0  0  0  0  0  0  0  0
    2.7794   -0.6913   -0.5207 C   0  0  0  0  0  0  0  0  0  0  0  0
    3.1556   -1.5753   -1.5424 O   0  0  0  0  0  0  0  0  0  0  0  0
    2.4511   -1.4484    0.7249 C   0  0  0  0  0  0  0  0  0  0  0  0
    1.1461   -2.2243    0.6046 C   0  0  0  0  0  0  0  0  0  0  0  0
    3.8846    0.2753   -0.2378 C   0  0  0  0  0  0  0  0  0  0  0  0
    4.9647   -0.1511    0.5273 C   0  0  0  0  0  0  0  0  0  0  0  0
    5.9759    0.7369    0.7976 C   0  0  0  0  0  0  0  0  0  0  0  0
    5.9241    2.0253    0.3212 C   0  0  0  0  0  0  0  0  0  0  0  0
    7.2247    3.1214    0.7001 Cl  0  0  0  0  0  0  0  0  0  0  0  0
    4.8729    2.4764   -0.4388 C   0  0  0  0  0  0  0  0  0  0  0  0
    4.7876    4.1194   -1.0657 Cl  0  0  0  0  0  0  0  0  0  0  0  0
    3.8615    1.5777   -0.7055 C   0  0  0  0  0  0  0  0  0  0  0  0
   -2.5716    0.6775    1.5839 N   0  0  0  0  0  0  0  0  0  0  0  0
   -3.7888    0.9847    1.1110 C   0  0  0  0  0  0  0  0  0  0  0  0
   -4.7427    1.9351    1.4435 C   0  0  0  0  0  0  0  0  0  0  0  0
   -5.8943    1.9610    0.6956 C   0  0  0  0  0  0  0  0  0  0  0  0
   -6.1247    1.0973   -0.3497 C   0  0  0  0  0  0  0  0  0  0  0  0
   -5.1814    0.1517   -0.6834 C   0  0  0  0  0  0  0  0  0  0  0  0
   -4.0259    0.1194    0.0633 C   0  0  0  0  0  0  0  0  0  0  0  0
   -7.3626    1.2002   -1.0868 C   0  0  0  0  0  0  0  0  0  0  0  0
   -8.3378    1.2660   -1.6889 N   0  0  0  0  0  0  0  0  0  0  0  0
   -2.1572   -2.5523   -0.7250 H   0  0  0  0  0  0  0  0  0  0  0  0
   -3.8323   -2.1817   -1.1427 H   0  0  0  0  0  0  0  0  0  0  0  0
   -2.5659   -1.3400   -2.0559 H   0  0  0  0  0  0  0  0  0  0  0  0
   -0.7414   -1.5171    2.0428 H   0  0  0  0  0  0  0  0  0  0  0  0
   -0.0237    0.0306    1.5256 H   0  0  0  0  0  0  0  0  0  0  0  0
   -0.4757    0.2161   -0.9607 H   0  0  0  0  0  0  0  0  0  0  0  0
    0.2446   -1.2139   -1.9116 H   0  0  0  0  0  0  0  0  0  0  0  0
    1.5236    1.0951   -0.4158 H   0  0  0  0  0  0  0  0  0  0  0  0
    1.8122    0.3977   -2.0514 H   0  0  0  0  0  0  0  0  0  0  0  0
    3.5599   -2.3499   -1.1190 H   0  0  0  0  0  0  0  0  0  0  0  0
    2.3319   -0.7291    1.5804 H   0  0  0  0  0  0  0  0  0  0  0  0
    3.2556   -2.1756    0.9155 H   0  0  0  0  0  0  0  0  0  0  0  0
    1.2704   -3.1585    0.0149 H   0  0  0  0  0  0  0  0  0  0  0  0
    0.8927   -2.5346    1.6483 H   0  0  0  0  0  0  0  0  0  0  0  0
    4.9986   -1.1872    0.8941 H   0  0  0  0  0  0  0  0  0  0  0  0
    6.8139    0.4139    1.3981 H   0  0  0  0  0  0  0  0  0  0  0  0
    3.0524    1.9423   -1.3083 H   0  0  0  0  0  0  0  0  0  0  0  0
   -4.5226    2.5897    2.2762 H   0  0  0  0  0  0  0  0  0  0  0  0
   -6.6570    2.7251    0.9600 H   0  0  0  0  0  0  0  0  0  0  0  0
   -5.3120   -0.5420   -1.4891 H   0  0  0  0  0  0  0  0  0  0  0  0
  1  2  1  0
  2  3  1  0
  3  4  1  0
  4  5  1  0
  5  6  1  0
  6  7  1  0
  7  8  1  0
  8  9  1  0
  8 10  1  0
 10 11  1  0
  8 12  1  0
 12 13  2  0
 13 14  1  0
 14 15  2  0
 15 16  1  0
 15 17  1  0
 17 18  1  0
 17 19  2  0
  3 20  2  0
 20 21  1  0
 21 22  2  0
 22 23  1  0
 23 24  2  0
 24 25  1  0
 25 26  2  0
 24 27  1  0
 27 28  3  0
 26  2  1  0
 11  5  1  0
 19 12  1  0
 26 21  1  0
  1 29  1  0
  1 30  1  0
  1 31  1  0
  4 32  1  0
  4 33  1  0
  6 34  1  0
  6 35  1  0
  7 36  1  0
  7 37  1  0
  9 38  1  0
 10 39  1  0
 10 40  1  0
 11 41  1  0
 11 42  1  0
 13 43  1  0
 14 44  1  0
 19 45  1  0
 22 46  1  0
 23 47  1  0
 25 48  1  0
M  END
$$$$
[H]c1nc(N2C([H])([H])C([H])([H])N(C3([H])C([H])([H])C3([H])[H])C([H])([H])C2([H])[H])c([H])c([H])c1N([H])C(=O)c1c([H])c([H])c2c(-c3sc([H])c([H])c3[H])c([H])c(C([H])([H])[H])c([H])c2c1[H]
     RDKit          3D

 62 67  0  0  0  0  0  0  0  0999 V2000
   -8.0891   -3.0649    2.2267 C   0  0  0  0  0  0  0  0  0  0  0  0
   -7.2140   -2.0572    1.5659 C   0  0  0  0  0  0  0  0  0  0  0  0
   -7.7340   -1.0367    0.8219 C   0  0  0  0  0  0  0  0  0  0  0  0
   -6.9312   -0.0617    0.1804 C   0  0  0  0  0  0  0  0  0  0  0  0
   -7.6744    0.9527   -0.5909 C   0  0  0  0  0  0  0  0  0  0  0  0
   -7.5105    2.2658   -0.8480 C   0  0  0  0  0  0  0  0  0  0  0  0
   -8.4787    2.9259   -1.5228 C   0  0  0  0  0  0  0  0  0  0  0  0
   -9.5764    2.2116   -1.9039 C   0  0  0  0  0  0  0  0  0  0  0  0
   -9.2413    0.6563   -1.3223 S   0  0  0  0  0  0  0  0  0  0  0  0
   -5.5802   -0.1665    0.3193 C   0  0  0  0  0  0  0  0  0  0  0  0
   -4.7639    0.7247   -0.3218 C   0  0  0  0  0  0  0  0  0  0  0  0
   -3.3804    0.5812   -0.1965 C   0  0  0  0  0  0  0  0  0  0  0  0
   -2.8460   -0.4202    0.5421 C   0  0  0  0  0  0  0  0  0  0  0  0
   -3.6814   -1.3096    1.1763 C   0  0  0  0  0  0  0  0  0  0  0  0
   -5.0430   -1.2112    1.0829 C   0  0  0  0  0  0  0  0  0  0  0  0
   -5.8652   -2.1303    1.6883 C   0  0  0  0  0  0  0  0  0  0  0  0
   -1.3925   -0.5699    0.6629 C   0  0  0  0  0  0  0  0  0  0  0  0
   -0.9693   -1.2933    1.6035 O   0  0  0  0  0  0  0  0  0  0  0  0
   -0.5120    0.0492   -0.2116 N   0  0  0  0  0  0  0  0  0  0  0  0
    0.8872    0.0055   -0.2180 C   0  0  0  0  0  0  0  0  0  0  0  0
    1.6455   -0.4267    0.8467 C   0  0  0  0  0  0  0  0  0  0  0  0
    3.0377   -0.4497    0.7287 C   0  0  0  0  0  0  0  0  0  0  0  0
    3.6868   -0.0568   -0.4111 C   0  0  0  0  0  0  0  0  0  0  0  0
    2.9344    0.3639   -1.4442 N   0  0  0  0  0  0  0  0  0  0  0  0
    1.6032    0.3950   -1.3562 C   0  0  0  0  0  0  0  0  0  0  0  0
    5.1032   -0.1068   -0.4626 N   0  0  0  0  0  0  0  0  0  0  0  0
    5.8254   -0.5610    0.6803 C   0  0  0  0  0  0  0  0  0  0  0  0
    7.2865   -0.7536    0.5101 C   0  0  0  0  0  0  0  0  0  0  0  0
    7.8491   -0.4172   -0.7450 N   0  0  0  0  0  0  0  0  0  0  0  0
    6.9522   -0.5733   -1.8689 C   0  0  0  0  0  0  0  0  0  0  0  0
    5.7268    0.3219   -1.7169 C   0  0  0  0  0  0  0  0  0  0  0  0
    8.5590    0.8121   -0.8360 C   0  0  0  0  0  0  0  0  0  0  0  0
    9.8017    0.8551    0.0794 C   0  0  0  0  0  0  0  0  0  0  0  0
    8.6615    1.8131    0.2173 C   0  0  0  0  0  0  0  0  0  0  0  0
   -7.9348   -4.0788    1.8327 H   0  0  0  0  0  0  0  0  0  0  0  0
   -9.1492   -2.7525    2.0683 H   0  0  0  0  0  0  0  0  0  0  0  0
   -7.8855   -3.0469    3.3241 H   0  0  0  0  0  0  0  0  0  0  0  0
   -8.8035   -0.9667    0.7157 H   0  0  0  0  0  0  0  0  0  0  0  0
   -6.6107    2.8328   -0.4719 H   0  0  0  0  0  0  0  0  0  0  0  0
   -8.3951    4.0165   -1.7662 H   0  0  0  0  0  0  0  0  0  0  0  0
  -10.4586    2.5973   -2.4623 H   0  0  0  0  0  0  0  0  0  0  0  0
   -5.1315    1.4989   -0.9526 H   0  0  0  0  0  0  0  0  0  0  0  0
   -2.7823    1.3228   -0.7231 H   0  0  0  0  0  0  0  0  0  0  0  0
   -3.2894   -2.1232    1.7754 H   0  0  0  0  0  0  0  0  0  0  0  0
   -5.4397   -2.9313    2.2756 H   0  0  0  0  0  0  0  0  0  0  0  0
   -0.9457    0.6443   -0.9917 H   0  0  0  0  0  0  0  0  0  0  0  0
    1.2364   -0.7419    1.7781 H   0  0  0  0  0  0  0  0  0  0  0  0
    3.6039   -0.8020    1.6033 H   0  0  0  0  0  0  0  0  0  0  0  0
    1.0247    0.7410   -2.2139 H   0  0  0  0  0  0  0  0  0  0  0  0
    5.3767   -1.5642    0.9508 H   0  0  0  0  0  0  0  0  0  0  0  0
    5.5641    0.0787    1.5669 H   0  0  0  0  0  0  0  0  0  0  0  0
    7.8021   -0.1719    1.3048 H   0  0  0  0  0  0  0  0  0  0  0  0
    7.5963   -1.8210    0.7236 H   0  0  0  0  0  0  0  0  0  0  0  0
    6.5761   -1.6006   -1.9816 H   0  0  0  0  0  0  0  0  0  0  0  0
    7.4766   -0.2547   -2.7745 H   0  0  0  0  0  0  0  0  0  0  0  0
    5.0475    0.0411   -2.5471 H   0  0  0  0  0  0  0  0  0  0  0  0
    5.9817    1.3797   -1.6705 H   0  0  0  0  0  0  0  0  0  0  0  0
    8.7964    1.1189   -1.8764 H   0  0  0  0  0  0  0  0  0  0  0  0
    9.8882    0.1084    0.8726 H   0  0  0  0  0  0  0  0  0  0  0  0
   10.7533    1.1846   -0.3491 H   0  0  0  0  0  0  0  0  0  0  0  0
    8.0958    1.8324    1.1504 H   0  0  0  0  0  0  0  0  0  0  0  0
    8.9299    2.8590   -0.1176 H   0  0  0  0  0  0  0  0  0  0  0  0
  1  2  1  0
  2  3  2  0
  3  4  1  0
  4  5  1  0
  5  6  2  0
  6  7  1  0
  7  8  2  0
  8  9  1  0
  4 10  2  0
 10 11  1  0
 11 12  2  0
 12 13  1  0
 13 14  2  0
 14 15  1  0
 15 16  2  0
 13 17  1  0
 17 18  2  0
 17 19  1  0
 19 20  1  0
 20 21  2  0
 21 22  1  0
 22 23  2  0
 23 24  1  0
 24 25  2  0
 23 26  1  0
 26 27  1  0
 27 28  1  0
 28 29  1  0
 29 30  1  0
 30 31  1  0
 29 32  1  0
 32 33  1  0
 33 34  1  0
 16  2  1  0
 25 20  1  0
 31 26  1  0
 34 32  1  0
  9  5  1  0
 15 10  1  0
  1 35  1  0
  1 36  1  0
  1 37  1  0
  3 38  1  0
  6 39  1  0
  7 40  1  0
  8 41  1  0
 11 42  1  0
 12 43  1  0
 14 44  1  0
 16 45  1  0
 19 46  1  0
 21 47  1  0
 22 48  1  0
 25 49  1  0
 27 50  1  0
 27 51  1  0
 28 52  1  0
 28 53  1  0
 30 54  1  0
 30 55  1  0
 31 56  1  0
 31 57  1  0
 32 58  1  0
 33 59  1  0
 33 60  1  0
 34 61  1  0
 34 62  1  0
M  END
$$$$
[H]OC(=O)C(=O)O[H].[H]OC(=O)c1c([H])c([H])c([H])c([H])c1Cl
     RDKit          3D

 23 22  0  0  0  0  0  0  0  0999 V2000
    1.7147   -0.2267    0.5832 O   0  0  0  0  0  0  0  0  0  0  0  0
    0.6276    0.1221   -0.2323 C   0  0  0  0  0  0  0  0  0  0  0  0
    0.7874    0.9641   -1.1574 O   0  0  0  0  0  0  0  0  0  0  0  0
   -0.6869   -0.4479   -0.0585 C   0  0  0  0  0  0  0  0  0  0  0  0
   -1.7497   -0.1084   -0.8542 O   0  0  0  0  0  0  0  0  0  0  0  0
   -0.8534   -1.2815    0.8541 O   0  0  0  0  0  0  0  0  0  0  0  0
    2.8873   -0.7987   -0.1303 O   0  0  0  0  0  0  0  0  0  0  0  0
    2.0491    0.0174    0.6016 C   0  0  0  0  0  0  0  0  0  0  0  0
    2.5150    0.7089    1.5364 O   0  0  0  0  0  0  0  0  0  0  0  0
    0.6357    0.0549    0.2730 C   0  0  0  0  0  0  0  0  0  0  0  0
   -0.1812   -1.0164    0.5633 C   0  0  0  0  0  0  0  0  0  0  0  0
   -1.5300   -0.9885    0.2551 C   0  0  0  0  0  0  0  0  0  0  0  0
   -2.1075    0.1078   -0.3534 C   0  0  0  0  0  0  0  0  0  0  0  0
   -1.2822    1.1812   -0.6430 C   0  0  0  0  0  0  0  0  0  0  0  0
    0.0625    1.1490   -0.3332 C   0  0  0  0  0  0  0  0  0  0  0  0
    1.1321    2.4971   -0.7035 Cl  0  0  0  0  0  0  0  0  0  0  0  0
    2.5461    0.3420    0.5557 H   0  0  0  0  0  0  0  0  0  0  0  0
   -2.3859    0.6363   -0.7266 H   0  0  0  0  0  0  0  0  0  0  0  0
    2.5592   -1.4302   -0.8427 H   0  0  0  0  0  0  0  0  0  0  0  0
    0.2732   -1.8860    1.0311 H   0  0  0  0  0  0  0  0  0  0  0  0
   -2.1769   -1.8313    0.4843 H   0  0  0  0  0  0  0  0  0  0  0  0
   -3.1619    0.1569   -0.6134 H   0  0  0  0  0  0  0  0  0  0  0  0
   -1.6744    2.0780   -1.1251 H   0  0  0  0  0  0  0  0  0  0  0  0
  1  2  1  0
  2  3  2  0
  2  4  1  0
  4  5  1  0
  4  6  2  0
  7  8  1  0
  8  9  2  0
  8 10  1  0
 10 11  2  0
 11 12  1  0
 12 13  2  0
 13 14  1  0
 14 15  2  0
 15 16  1  0
 15 10  1  0
  1 17  1  0
  5 18  1  0
  7 19  1  0
 11 20  1  0
 12 21  1  0
 13 22  1  0
 14 23  1  0
M  END
$$$$
[H]c1c(Cl)nc(N([H])c2c(C3(C([H])([H])[H])C([H])([H])C3([H])[H])nn3c(=O)n([H])c(C([H])([H])[H])nc23)c([H])c1[H]
     RDKit          3D

 38 41  0  0  0  0  0  0  0  0999 V2000
   -3.0027    3.4470    1.9543 C   0  0  0  0  0  0  0  0  0  0  0  0
   -2.7559    2.1385    1.2924 C   0  0  0  0  0  0  0  0  0  0  0  0
   -1.5160    1.5743    1.2847 N   0  0  0  0  0  0  0  0  0  0  0  0
   -1.3024    0.3891    0.6826 C   0  0  0  0  0  0  0  0  0  0  0  0
   -0.1816   -0.4157    0.5127 C   0  0  0  0  0  0  0  0  0  0  0  0
    1.0783   -0.0882    1.0213 N   0  0  0  0  0  0  0  0  0  0  0  0
    1.9779    0.7579    0.3215 C   0  0  0  0  0  0  0  0  0  0  0  0
    1.7004    1.3507   -0.8901 C   0  0  0  0  0  0  0  0  0  0  0  0
    2.5974    2.1677   -1.5434 C   0  0  0  0  0  0  0  0  0  0  0  0
    3.8367    2.4265   -0.9917 C   0  0  0  0  0  0  0  0  0  0  0  0
    4.1007    1.8260    0.2220 C   0  0  0  0  0  0  0  0  0  0  0  0
    5.6815    2.1517    0.9332 Cl  0  0  0  0  0  0  0  0  0  0  0  0
    3.2096    1.0324    0.8410 N   0  0  0  0  0  0  0  0  0  0  0  0
   -0.5484   -1.5378   -0.1960 C   0  0  0  0  0  0  0  0  0  0  0  0
   -1.8778   -1.3785   -0.4340 N   0  0  0  0  0  0  0  0  0  0  0  0
   -2.3229   -0.2468    0.0815 N   0  0  0  0  0  0  0  0  0  0  0  0
   -3.5432    0.3343    0.1033 C   0  0  0  0  0  0  0  0  0  0  0  0
   -4.4685   -0.3081   -0.4781 O   0  0  0  0  0  0  0  0  0  0  0  0
   -3.7845    1.5143    0.6956 N   0  0  0  0  0  0  0  0  0  0  0  0
    0.2933   -2.7029   -0.6159 C   0  0  0  0  0  0  0  0  0  0  0  0
    1.4586   -2.4366   -1.5035 C   0  0  0  0  0  0  0  0  0  0  0  0
    0.2793   -3.8772    0.3047 C   0  0  0  0  0  0  0  0  0  0  0  0
   -0.4665   -3.9964   -0.9567 C   0  0  0  0  0  0  0  0  0  0  0  0
   -2.3727    3.5623    2.8616 H   0  0  0  0  0  0  0  0  0  0  0  0
   -4.0556    3.5284    2.2831 H   0  0  0  0  0  0  0  0  0  0  0  0
   -2.7408    4.2780    1.2691 H   0  0  0  0  0  0  0  0  0  0  0  0
    1.3633   -0.4727    1.9328 H   0  0  0  0  0  0  0  0  0  0  0  0
    0.7256    1.1437   -1.3183 H   0  0  0  0  0  0  0  0  0  0  0  0
    2.3515    2.6179   -2.4916 H   0  0  0  0  0  0  0  0  0  0  0  0
    4.5555    3.0649   -1.4880 H   0  0  0  0  0  0  0  0  0  0  0  0
   -4.7459    1.9131    0.6802 H   0  0  0  0  0  0  0  0  0  0  0  0
    1.7042   -3.3033   -2.1506 H   0  0  0  0  0  0  0  0  0  0  0  0
    2.3337   -2.1287   -0.8959 H   0  0  0  0  0  0  0  0  0  0  0  0
    1.2000   -1.6042   -2.1970 H   0  0  0  0  0  0  0  0  0  0  0  0
    1.2250   -4.4588    0.4010 H   0  0  0  0  0  0  0  0  0  0  0  0
   -0.3261   -3.7779    1.2276 H   0  0  0  0  0  0  0  0  0  0  0  0
   -1.5788   -3.8691   -0.9901 H   0  0  0  0  0  0  0  0  0  0  0  0
   -0.0821   -4.6157   -1.7653 H   0  0  0  0  0  0  0  0  0  0  0  0
  1  2  1  0
  2  3  2  0
  3  4  1  0
  4  5  2  0
  5  6  1  0
  6  7  1  0
  7  8  2  0
  8  9  1  0
  9 10  2  0
 10 11  1  0
 11 12  1  0
 11 13  2  0
  5 14  1  0
 14 15  2  0
 15 16  1  0
 16 17  1  0
 17 18  2  0
 17 19  1  0
 14 20  1  0
 20 21  1  0
 20 22  1  0
 22 23  1  0
 19  2  1  0
 23 20  1  0
 16  4  1  0
 13  7  1  0
  1 24  1  0
  1 25  1  0
  1 26  1  0
  6 27  1  0
  8 28  1  0
  9 29  1  0
 10 30  1  0
 19 31  1  0
 21 32  1  0
 21 33  1  0
 21 34  1  0
 22 35  1  0
 22 36  1  0
 23 37  1  0
 23 38  1  0
M  END
$$$$
[H]c1c([H])c([H])c2c(c1[H])N(c1nc3c([H])c([H])c([H])c([H])c3n1[H])C([H])([H])c1c([H])c(N([H])C(=O)N([H])c3c([H])c([H])c([H])c(C([H])([H])C([H])([H])[H])c3[H])c([H])c([H])c1C([H])([H])C2([H])[H]
     RDKit          3D

 66 71  0  0  0  0  0  0  0  0999 V2000
    9.5372    2.1505   -1.0685 C   0  0  0  0  0  0  0  0  0  0  0  0
    9.1285    1.7829    0.3364 C   0  0  0  0  0  0  0  0  0  0  0  0
    8.2155    0.6086    0.2814 C   0  0  0  0  0  0  0  0  0  0  0  0
    8.7307   -0.6576    0.3115 C   0  0  0  0  0  0  0  0  0  0  0  0
    7.8586   -1.7337    0.2603 C   0  0  0  0  0  0  0  0  0  0  0  0
    6.5147   -1.5094    0.1846 C   0  0  0  0  0  0  0  0  0  0  0  0
    5.9529   -0.2037    0.1540 C   0  0  0  0  0  0  0  0  0  0  0  0
    4.5846   -0.1957    0.1710 N   0  0  0  0  0  0  0  0  0  0  0  0
    3.2397   -0.1868    0.1874 C   0  0  0  0  0  0  0  0  0  0  0  0
    2.4940    0.7809   -0.1448 O   0  0  0  0  0  0  0  0  0  0  0  0
    2.4773   -1.3561    0.6182 N   0  0  0  0  0  0  0  0  0  0  0  0
    1.1212   -1.5323    0.7126 C   0  0  0  0  0  0  0  0  0  0  0  0
    0.6897   -2.7808    1.2075 C   0  0  0  0  0  0  0  0  0  0  0  0
   -0.6393   -3.0636    1.3787 C   0  0  0  0  0  0  0  0  0  0  0  0
   -1.5959   -2.1359    1.0711 C   0  0  0  0  0  0  0  0  0  0  0  0
   -2.8816   -2.8182    1.4140 C   0  0  0  0  0  0  0  0  0  0  0  0
   -3.4149   -3.3841    0.1298 C   0  0  0  0  0  0  0  0  0  0  0  0
   -4.0651   -2.3779   -0.7098 C   0  0  0  0  0  0  0  0  0  0  0  0
   -4.9389   -3.1265   -1.4875 C   0  0  0  0  0  0  0  0  0  0  0  0
   -5.7708   -2.5277   -2.4207 C   0  0  0  0  0  0  0  0  0  0  0  0
   -5.6990   -1.1628   -2.5489 C   0  0  0  0  0  0  0  0  0  0  0  0
   -4.8469   -0.3743   -1.8014 C   0  0  0  0  0  0  0  0  0  0  0  0
   -4.0164   -1.0128   -0.8621 C   0  0  0  0  0  0  0  0  0  0  0  0
   -3.2898    0.0825   -0.2759 N   0  0  0  0  0  0  0  0  0  0  0  0
   -1.9297    0.3242    0.1617 C   0  0  0  0  0  0  0  0  0  0  0  0
   -1.2456   -0.9183    0.5867 C   0  0  0  0  0  0  0  0  0  0  0  0
    0.1295   -0.6398    0.4140 C   0  0  0  0  0  0  0  0  0  0  0  0
   -4.1511    1.1980   -0.0748 C   0  0  0  0  0  0  0  0  0  0  0  0
   -5.3865    1.1545    0.4262 N   0  0  0  0  0  0  0  0  0  0  0  0
   -5.9164    2.3916    0.4812 C   0  0  0  0  0  0  0  0  0  0  0  0
   -7.1646    2.8638    0.9240 C   0  0  0  0  0  0  0  0  0  0  0  0
   -7.4382    4.2198    0.8601 C   0  0  0  0  0  0  0  0  0  0  0  0
   -6.4665    5.0597    0.3607 C   0  0  0  0  0  0  0  0  0  0  0  0
   -5.2484    4.5852   -0.0688 C   0  0  0  0  0  0  0  0  0  0  0  0
   -4.9533    3.2428   -0.0144 C   0  0  0  0  0  0  0  0  0  0  0  0
   -3.8887    2.4866   -0.3456 N   0  0  0  0  0  0  0  0  0  0  0  0
    6.8427    0.8389    0.2019 C   0  0  0  0  0  0  0  0  0  0  0  0
    8.8115    2.7970   -1.5930 H   0  0  0  0  0  0  0  0  0  0  0  0
    9.6507    1.2167   -1.6954 H   0  0  0  0  0  0  0  0  0  0  0  0
   10.5335    2.6308   -1.0995 H   0  0  0  0  0  0  0  0  0  0  0  0
    8.6176    2.6301    0.8293 H   0  0  0  0  0  0  0  0  0  0  0  0
   10.0161    1.4686    0.9162 H   0  0  0  0  0  0  0  0  0  0  0  0
    9.7961   -0.8027    0.3777 H   0  0  0  0  0  0  0  0  0  0  0  0
    8.3143   -2.7081    0.2931 H   0  0  0  0  0  0  0  0  0  0  0  0
    5.8783   -2.3722    0.1548 H   0  0  0  0  0  0  0  0  0  0  0  0
    4.5733    1.0227   -0.4261 H   0  0  0  0  0  0  0  0  0  0  0  0
    3.1776   -2.1488    0.8735 H   0  0  0  0  0  0  0  0  0  0  0  0
    1.4580   -3.5083    1.4416 H   0  0  0  0  0  0  0  0  0  0  0  0
   -0.9052   -4.0472    1.7755 H   0  0  0  0  0  0  0  0  0  0  0  0
   -2.6279   -3.7110    2.0592 H   0  0  0  0  0  0  0  0  0  0  0  0
   -3.5737   -2.1853    1.9686 H   0  0  0  0  0  0  0  0  0  0  0  0
   -2.6537   -3.9989   -0.3532 H   0  0  0  0  0  0  0  0  0  0  0  0
   -4.2267   -4.1047    0.4403 H   0  0  0  0  0  0  0  0  0  0  0  0
   -4.9945   -4.1953   -1.3852 H   0  0  0  0  0  0  0  0  0  0  0  0
   -6.4612   -3.1432   -3.0249 H   0  0  0  0  0  0  0  0  0  0  0  0
   -6.3635   -0.7049   -3.2830 H   0  0  0  0  0  0  0  0  0  0  0  0
   -4.7745    0.6794   -1.8949 H   0  0  0  0  0  0  0  0  0  0  0  0
   -2.0314    1.0324    1.0503 H   0  0  0  0  0  0  0  0  0  0  0  0
   -1.2935    0.8502   -0.5746 H   0  0  0  0  0  0  0  0  0  0  0  0
    0.3659    0.3268    0.0169 H   0  0  0  0  0  0  0  0  0  0  0  0
   -7.8682    2.1492    1.2931 H   0  0  0  0  0  0  0  0  0  0  0  0
   -8.3642    4.6176    1.1782 H   0  0  0  0  0  0  0  0  0  0  0  0
   -6.6588    6.1285    0.2952 H   0  0  0  0  0  0  0  0  0  0  0  0
   -4.4752    5.2504   -0.4707 H   0  0  0  0  0  0  0  0  0  0  0  0
   -3.0066    2.8912   -0.7469 H   0  0  0  0  0  0  0  0  0  0  0  0
    6.5168    1.8662    0.1907 H   0  0  0  0  0  0  0  0  0  0  0  0
  1  2  1  0
  2  3  1  0
  3  4  2  0
  4  5  1  0
  5  6  2  0
  6  7  1  0
  7  8  1  0
  8  9  1  0
  9 10  2  0
  9 11  1  0
 11 12  1  0
 12 13  2  0
 13 14  1  0
 14 15  2  0
 15 16  1  0
 16 17  1  0
 17 18  1  0
 18 19  2  0
 19 20  1  0
 20 21  2  0
 21 22  1  0
 22 23  2  0
 23 24  1  0
 24 25  1  0
 25 26  1  0
 26 27  2  0
 24 28  1  0
 28 29  2  0
 29 30  1  0
 30 31  2  0
 31 32  1  0
 32 33  2  0
 33 34  1  0
 34 35  2  0
 35 36  1  0
  7 37  2  0
 37  3  1  0
 27 12  1  0
 36 28  1  0
 26 15  1  0
 35 30  1  0
 23 18  1  0
  1 38  1  0
  1 39  1  0
  1 40  1  0
  2 41  1  0
  2 42  1  0
  4 43  1  0
  5 44  1  0
  6 45  1  0
  8 46  1  0
 11 47  1  0
 13 48  1  0
 14 49  1  0
 16 50  1  0
 16 51  1  0
 17 52  1  0
 17 53  1  0
 19 54  1  0
 20 55  1  0
 21 56  1  0
 22 57  1  0
 25 58  1  0
 25 59  1  0
 27 60  1  0
 31 61  1  0
 32 62  1  0
 33 63  1  0
 34 64  1  0
 36 65  1  0
 37 66  1  0
M  END
$$$$
[H]c1c([H])c(-c2nc(C([H])([H])[H])n(C3([H])C([H])([H])C([H])([H])C([H])([H])C3([H])[H])n2)c([H])c(OC2([H])C([H])([H])C([H])([H])C([H])([H])C2([H])[H])c1OC([H])([H])[H]
     RDKit          3D

 52 55  0  0  0  0  0  0  0  0999 V2000
   -4.0726    0.6399   -4.2608 C   0  0  0  0  0  0  0  0  0  0  0  0
   -3.9232    0.4203   -2.8854 O   0  0  0  0  0  0  0  0  0  0  0  0
   -2.6785    0.3406   -2.3058 C   0  0  0  0  0  0  0  0  0  0  0  0
   -1.5168    0.4686   -3.0233 C   0  0  0  0  0  0  0  0  0  0  0  0
   -0.2795    0.3806   -2.3923 C   0  0  0  0  0  0  0  0  0  0  0  0
   -0.1788    0.1635   -1.0360 C   0  0  0  0  0  0  0  0  0  0  0  0
   -1.3636    0.0352   -0.3187 C   0  0  0  0  0  0  0  0  0  0  0  0
   -2.6014    0.1183   -0.9192 C   0  0  0  0  0  0  0  0  0  0  0  0
   -3.7886   -0.0075   -0.2174 O   0  0  0  0  0  0  0  0  0  0  0  0
   -3.9795   -0.2264    1.1302 C   0  0  0  0  0  0  0  0  0  0  0  0
   -4.7892    0.8667    1.8045 C   0  0  0  0  0  0  0  0  0  0  0  0
   -6.1953    0.5105    1.3609 C   0  0  0  0  0  0  0  0  0  0  0  0
   -6.2597   -0.9880    1.4463 C   0  0  0  0  0  0  0  0  0  0  0  0
   -4.8219   -1.4539    1.4264 C   0  0  0  0  0  0  0  0  0  0  0  0
    1.1209    0.0728   -0.3849 C   0  0  0  0  0  0  0  0  0  0  0  0
    2.3131    0.1826   -0.9875 N   0  0  0  0  0  0  0  0  0  0  0  0
    3.3167    0.0566   -0.1363 N   0  0  0  0  0  0  0  0  0  0  0  0
    4.7156    0.1203   -0.4384 C   0  0  0  0  0  0  0  0  0  0  0  0
    5.4425   -1.1917   -0.2905 C   0  0  0  0  0  0  0  0  0  0  0  0
    6.8035   -0.8184    0.2576 C   0  0  0  0  0  0  0  0  0  0  0  0
    6.9227    0.6639    0.1066 C   0  0  0  0  0  0  0  0  0  0  0  0
    5.4919    1.1487    0.3088 C   0  0  0  0  0  0  0  0  0  0  0  0
    2.7454   -0.1424    1.0635 C   0  0  0  0  0  0  0  0  0  0  0  0
    3.3909   -0.3454    2.3703 C   0  0  0  0  0  0  0  0  0  0  0  0
    1.4107   -0.1313    0.9040 N   0  0  0  0  0  0  0  0  0  0  0  0
   -3.9487   -0.2672   -4.8657 H   0  0  0  0  0  0  0  0  0  0  0  0
   -3.3790    1.4546   -4.5699 H   0  0  0  0  0  0  0  0  0  0  0  0
   -5.1124    1.0295   -4.4151 H   0  0  0  0  0  0  0  0  0  0  0  0
   -1.5448    0.6419   -4.1021 H   0  0  0  0  0  0  0  0  0  0  0  0
    0.6491    0.4808   -2.9523 H   0  0  0  0  0  0  0  0  0  0  0  0
   -1.2815   -0.1376    0.7606 H   0  0  0  0  0  0  0  0  0  0  0  0
   -3.0334   -0.3033    1.6726 H   0  0  0  0  0  0  0  0  0  0  0  0
   -4.7084    0.8126    2.8971 H   0  0  0  0  0  0  0  0  0  0  0  0
   -4.5225    1.8719    1.4596 H   0  0  0  0  0  0  0  0  0  0  0  0
   -6.4081    0.8731    0.3347 H   0  0  0  0  0  0  0  0  0  0  0  0
   -6.9040    0.9583    2.0568 H   0  0  0  0  0  0  0  0  0  0  0  0
   -6.7715   -1.2961    2.3854 H   0  0  0  0  0  0  0  0  0  0  0  0
   -6.8257   -1.3581    0.5577 H   0  0  0  0  0  0  0  0  0  0  0  0
   -4.7312   -2.2011    0.6133 H   0  0  0  0  0  0  0  0  0  0  0  0
   -4.5291   -1.9565    2.3633 H   0  0  0  0  0  0  0  0  0  0  0  0
    4.8116    0.3947   -1.5307 H   0  0  0  0  0  0  0  0  0  0  0  0
    4.9152   -1.9390    0.2995 H   0  0  0  0  0  0  0  0  0  0  0  0
    5.6489   -1.6798   -1.2886 H   0  0  0  0  0  0  0  0  0  0  0  0
    6.7991   -1.0300    1.3668 H   0  0  0  0  0  0  0  0  0  0  0  0
    7.6221   -1.3848   -0.2032 H   0  0  0  0  0  0  0  0  0  0  0  0
    7.2068    0.9330   -0.9297 H   0  0  0  0  0  0  0  0  0  0  0  0
    7.5922    1.1193    0.8423 H   0  0  0  0  0  0  0  0  0  0  0  0
    5.4338    2.1364   -0.2286 H   0  0  0  0  0  0  0  0  0  0  0  0
    5.2285    1.3051    1.3496 H   0  0  0  0  0  0  0  0  0  0  0  0
    4.4263   -0.7382    2.3156 H   0  0  0  0  0  0  0  0  0  0  0  0
    3.3327    0.5425    3.0304 H   0  0  0  0  0  0  0  0  0  0  0  0
    2.8083   -1.1459    2.9032 H   0  0  0  0  0  0  0  0  0  0  0  0
  1  2  1  0
  2  3  1  0
  3  4  2  0
  4  5  1  0
  5  6  2  0
  6  7  1  0
  7  8  2  0
  8  9  1  0
  9 10  1  0
 10 11  1  0
 11 12  1  0
 12 13  1  0
 13 14  1  0
  6 15  1  0
 15 16  2  0
 16 17  1  0
 17 18  1  0
 18 19  1  0
 19 20  1  0
 20 21  1  0
 21 22  1  0
 17 23  1  0
 23 24  1  0
 23 25  2  0
  8  3  1  0
 14 10  1  0
 25 15  1  0
 22 18  1  0
  1 26  1  0
  1 27  1  0
  1 28  1  0
  4 29  1  0
  5 30  1  0
  7 31  1  0
 10 32  1  0
 11 33  1  0
 11 34  1  0
 12 35  1  0
 12 36  1  0
 13 37  1  0
 13 38  1  0
 14 39  1  0
 14 40  1  0
 18 41  1  0
 19 42  1  0
 19 43  1  0
 20 44  1  0
 20 45  1  0
 21 46  1  0
 21 47  1  0
 22 48  1  0
 22 49  1  0
 24 50  1  0
 24 51  1  0
 24 52  1  0
M  END
$$$$
[H]c1c([H])c([H])c(N2C(=O)C([H])([H])C([H])(C(=O)N([H])C([H])([H])C(=O)N3C([H])([H])C([H])([H])C([H])(OC(=O)C([H])([H])[H])C([H])([H])C3([H])[H])C2([H])[H])c([H])c1[H]
     RDKit          3D

 53 55  0  0  0  0  0  0  0  0999 V2000
    9.0326    1.3372    0.9417 C   0  0  0  0  0  0  0  0  0  0  0  0
    7.5462    1.2893    0.9402 C   0  0  0  0  0  0  0  0  0  0  0  0
    6.9183    2.1187    1.6277 O   0  0  0  0  0  0  0  0  0  0  0  0
    6.8155    0.3703    0.2149 O   0  0  0  0  0  0  0  0  0  0  0  0
    5.4188    0.2867    0.1827 C   0  0  0  0  0  0  0  0  0  0  0  0
    4.8943   -1.0117    0.7358 C   0  0  0  0  0  0  0  0  0  0  0  0
    3.8926   -1.6126   -0.2591 C   0  0  0  0  0  0  0  0  0  0  0  0
    2.8920   -0.5523   -0.4466 N   0  0  0  0  0  0  0  0  0  0  0  0
    3.3638    0.6100   -1.1770 C   0  0  0  0  0  0  0  0  0  0  0  0
    4.8640    0.6025   -1.1940 C   0  0  0  0  0  0  0  0  0  0  0  0
    1.5787   -0.6898    0.0616 C   0  0  0  0  0  0  0  0  0  0  0  0
    1.2811   -1.7284    0.6749 O   0  0  0  0  0  0  0  0  0  0  0  0
    0.5911    0.3814   -0.1367 C   0  0  0  0  0  0  0  0  0  0  0  0
   -0.7033    0.1269    0.4154 N   0  0  0  0  0  0  0  0  0  0  0  0
   -1.5451   -0.9470    0.0370 C   0  0  0  0  0  0  0  0  0  0  0  0
   -1.1342   -1.7363   -0.8497 O   0  0  0  0  0  0  0  0  0  0  0  0
   -2.8747   -1.1805    0.6322 C   0  0  0  0  0  0  0  0  0  0  0  0
   -3.8220   -0.0469    0.4372 C   0  0  0  0  0  0  0  0  0  0  0  0
   -4.8534   -0.5309   -0.4702 N   0  0  0  0  0  0  0  0  0  0  0  0
   -4.4332   -1.7790   -1.0113 C   0  0  0  0  0  0  0  0  0  0  0  0
   -4.7807   -2.2277   -2.1247 O   0  0  0  0  0  0  0  0  0  0  0  0
   -3.5381   -2.3662    0.0194 C   0  0  0  0  0  0  0  0  0  0  0  0
   -6.0707    0.1663   -0.7397 C   0  0  0  0  0  0  0  0  0  0  0  0
   -6.1683    1.5239   -0.4593 C   0  0  0  0  0  0  0  0  0  0  0  0
   -7.3222    2.2461   -0.6983 C   0  0  0  0  0  0  0  0  0  0  0  0
   -8.4323    1.6259   -1.2329 C   0  0  0  0  0  0  0  0  0  0  0  0
   -8.3486    0.2796   -1.5156 C   0  0  0  0  0  0  0  0  0  0  0  0
   -7.1880   -0.4385   -1.2734 C   0  0  0  0  0  0  0  0  0  0  0  0
    9.4274    0.7229    0.0896 H   0  0  0  0  0  0  0  0  0  0  0  0
    9.3983    0.8372    1.8596 H   0  0  0  0  0  0  0  0  0  0  0  0
    9.4421    2.3431    0.8327 H   0  0  0  0  0  0  0  0  0  0  0  0
    5.0355    1.1053    0.8522 H   0  0  0  0  0  0  0  0  0  0  0  0
    4.3115   -0.8661    1.6690 H   0  0  0  0  0  0  0  0  0  0  0  0
    5.6838   -1.7468    0.9610 H   0  0  0  0  0  0  0  0  0  0  0  0
    3.4434   -2.5314    0.1311 H   0  0  0  0  0  0  0  0  0  0  0  0
    4.4389   -1.7848   -1.1969 H   0  0  0  0  0  0  0  0  0  0  0  0
    3.0008    0.4690   -2.2364 H   0  0  0  0  0  0  0  0  0  0  0  0
    2.9176    1.5490   -0.8203 H   0  0  0  0  0  0  0  0  0  0  0  0
    5.1880    1.6636   -1.4046 H   0  0  0  0  0  0  0  0  0  0  0  0
    5.2480   -0.0843   -1.9756 H   0  0  0  0  0  0  0  0  0  0  0  0
    0.5002    0.5241   -1.2383 H   0  0  0  0  0  0  0  0  0  0  0  0
    0.9606    1.3522    0.2603 H   0  0  0  0  0  0  0  0  0  0  0  0
   -1.0959    0.7696    1.1683 H   0  0  0  0  0  0  0  0  0  0  0  0
   -2.7664   -1.3613    1.7369 H   0  0  0  0  0  0  0  0  0  0  0  0
   -4.3550    0.1890    1.3919 H   0  0  0  0  0  0  0  0  0  0  0  0
   -3.3620    0.8902    0.0996 H   0  0  0  0  0  0  0  0  0  0  0  0
   -2.7831   -3.0627   -0.4444 H   0  0  0  0  0  0  0  0  0  0  0  0
   -4.1648   -2.9361    0.7518 H   0  0  0  0  0  0  0  0  0  0  0  0
   -5.2849    2.0012   -0.0365 H   0  0  0  0  0  0  0  0  0  0  0  0
   -7.3831    3.3162   -0.4722 H   0  0  0  0  0  0  0  0  0  0  0  0
   -9.3279    2.2209   -1.4104 H   0  0  0  0  0  0  0  0  0  0  0  0
   -9.2302   -0.1993   -1.9364 H   0  0  0  0  0  0  0  0  0  0  0  0
   -7.1169   -1.4978   -1.4941 H   0  0  0  0  0  0  0  0  0  0  0  0
  1  2  1  0
  2  3  2  0
  2  4  1  0
  4  5  1  0
  5  6  1  0
  6  7  1  0
  7  8  1  0
  8  9  1  0
  9 10  1  0
  8 11  1  0
 11 12  2  0
 11 13  1  0
 13 14  1  0
 14 15  1  0
 15 16  2  0
 15 17  1  0
 17 18  1  0
 18 19  1  0
 19 20  1  0
 20 21  2  0
 20 22  1  0
 19 23  1  0
 23 24  2  0
 24 25  1  0
 25 26  2  0
 26 27  1  0
 27 28  2  0
 10  5  1  0
 22 17  1  0
 28 23  1  0
  1 29  1  0
  1 30  1  0
  1 31  1  0
  5 32  1  0
  6 33  1  0
  6 34  1  0
  7 35  1  0
  7 36  1  0
  9 37  1  0
  9 38  1  0
 10 39  1  0
 10 40  1  0
 13 41  1  0
 13 42  1  0
 14 43  1  0
 17 44  1  0
 18 45  1  0
 18 46  1  0
 22 47  1  0
 22 48  1  0
 24 49  1  0
 25 50  1  0
 26 51  1  0
 27 52  1  0
 28 53  1  0
M  END
$$$$
[H]SC([H])([H])C(=O)C([H])([H])S[H]
     RDKit          3D

 12 11  0  0  0  0  0  0  0  0999 V2000
   -2.0458    0.5179   -0.5795 S   0  0  0  0  0  0  0  0  0  0  0  0
   -0.9020   -0.7430    0.0197 C   0  0  0  0  0  0  0  0  0  0  0  0
    0.1434   -0.0476    0.8248 C   0  0  0  0  0  0  0  0  0  0  0  0
    0.3069   -0.2449    1.9986 O   0  0  0  0  0  0  0  0  0  0  0  0
    0.9812    0.9169    0.0790 C   0  0  0  0  0  0  0  0  0  0  0  0
    1.9630    0.0419   -1.1595 S   0  0  0  0  0  0  0  0  0  0  0  0
   -3.3797    0.0806   -0.6644 H   0  0  0  0  0  0  0  0  0  0  0  0
   -0.3529   -1.2071   -0.8376 H   0  0  0  0  0  0  0  0  0  0  0  0
   -1.3846   -1.5723    0.5755 H   0  0  0  0  0  0  0  0  0  0  0  0
    0.2819    1.6049   -0.4622 H   0  0  0  0  0  0  0  0  0  0  0  0
    1.5814    1.5549    0.7500 H   0  0  0  0  0  0  0  0  0  0  0  0
    2.8071   -0.9020   -0.5444 H   0  0  0  0  0  0  0  0  0  0  0  0
  1  2  1  0
  2  3  1  0
  3  4  2  0
  3  5  1  0
  5  6  1  0
  1  7  1  0
  2  8  1  0
  2  9  1  0
  5 10  1  0
  5 11  1  0
  6 12  1  0
M  END
$$$$
[H]N=C(c1c([H])c([H])c(N([H])C([H])([H])[C@@]([H])(C(=O)O[H])N([H])C(=O)[C@@]([H])(N([H])C(=O)OC([H])([H])c2c([H])c([H])c([H])c([H])c2[H])C([H])([H])C([H])([H])C([H])([H])N=C(N([H])[H])N([H])[H])c([H])c1[H])N([H])[H]
     RDKit          3D

 69 70  0  0  0  0  0  0  0  0999 V2000
   -0.2836    5.3223    0.3340 N   0  0  0  0  0  0  0  0  0  0  0  0
   -1.5069    4.6301    0.4992 C   0  0  0  0  0  0  0  0  0  0  0  0
   -2.7231    5.2410    0.1231 N   0  0  0  0  0  0  0  0  0  0  0  0
   -1.5294    3.4549    0.9881 N   0  0  0  0  0  0  0  0  0  0  0  0
   -0.3999    2.6831    1.4266 C   0  0  0  0  0  0  0  0  0  0  0  0
   -0.7914    1.6992    2.5238 C   0  0  0  0  0  0  0  0  0  0  0  0
   -1.8156    0.7432    2.0638 C   0  0  0  0  0  0  0  0  0  0  0  0
   -1.4625   -0.1664    0.9124 C   0  0  2  0  0  0  0  0  0  0  0  0
   -2.7550   -0.9233    0.7229 N   0  0  0  0  0  0  0  0  0  0  0  0
   -3.4996   -0.8341   -0.4496 C   0  0  0  0  0  0  0  0  0  0  0  0
   -3.1780   -0.1318   -1.4484 O   0  0  0  0  0  0  0  0  0  0  0  0
   -4.6775   -1.5545   -0.5549 O   0  0  0  0  0  0  0  0  0  0  0  0
   -5.4597   -1.4942   -1.7310 C   0  0  0  0  0  0  0  0  0  0  0  0
   -6.6754   -2.3328   -1.6194 C   0  0  0  0  0  0  0  0  0  0  0  0
   -6.6722   -3.6456   -2.0340 C   0  0  0  0  0  0  0  0  0  0  0  0
   -7.7862   -4.4601   -1.9504 C   0  0  0  0  0  0  0  0  0  0  0  0
   -8.9537   -3.9326   -1.4273 C   0  0  0  0  0  0  0  0  0  0  0  0
   -8.9789   -2.6243   -1.0081 C   0  0  0  0  0  0  0  0  0  0  0  0
   -7.8480   -1.8204   -1.1002 C   0  0  0  0  0  0  0  0  0  0  0  0
   -0.4244   -1.1617    1.2416 C   0  0  0  0  0  0  0  0  0  0  0  0
   -0.8295   -2.3720    1.3888 O   0  0  0  0  0  0  0  0  0  0  0  0
    0.9264   -0.8278    1.3857 N   0  0  0  0  0  0  0  0  0  0  0  0
    1.9546   -1.8095    1.7052 C   0  0  1  0  0  0  0  0  0  0  0  0
    3.1190   -1.7187    0.7562 C   0  0  0  0  0  0  0  0  0  0  0  0
    3.7466   -0.4099    0.8226 N   0  0  0  0  0  0  0  0  0  0  0  0
    4.8757   -0.0308    0.0505 C   0  0  0  0  0  0  0  0  0  0  0  0
    5.3969   -0.8945   -0.8866 C   0  0  0  0  0  0  0  0  0  0  0  0
    6.5149   -0.5539   -1.6587 C   0  0  0  0  0  0  0  0  0  0  0  0
    7.1175    0.6476   -1.4988 C   0  0  0  0  0  0  0  0  0  0  0  0
    6.5963    1.5260   -0.5534 C   0  0  0  0  0  0  0  0  0  0  0  0
    5.4985    1.1807    0.1982 C   0  0  0  0  0  0  0  0  0  0  0  0
    8.2738    1.0259   -2.2760 C   0  0  0  0  0  0  0  0  0  0  0  0
    8.8638    2.2952   -2.0506 N   0  0  0  0  0  0  0  0  0  0  0  0
    8.7791    0.2588   -3.1438 N   0  0  0  0  0  0  0  0  0  0  0  0
    2.4070   -1.6467    3.1258 C   0  0  0  0  0  0  0  0  0  0  0  0
    3.3799   -2.4430    3.7025 O   0  0  0  0  0  0  0  0  0  0  0  0
    1.9124   -0.7633    3.8642 O   0  0  0  0  0  0  0  0  0  0  0  0
   -0.1717    5.8913   -0.5225 H   0  0  0  0  0  0  0  0  0  0  0  0
    0.4945    5.2913    1.0102 H   0  0  0  0  0  0  0  0  0  0  0  0
   -3.6280    4.8610    0.4324 H   0  0  0  0  0  0  0  0  0  0  0  0
   -2.7063    6.0870   -0.4742 H   0  0  0  0  0  0  0  0  0  0  0  0
   -0.0544    2.0499    0.5734 H   0  0  0  0  0  0  0  0  0  0  0  0
    0.4085    3.3092    1.8068 H   0  0  0  0  0  0  0  0  0  0  0  0
    0.1006    1.2418    2.9234 H   0  0  0  0  0  0  0  0  0  0  0  0
   -1.3016    2.3606    3.2961 H   0  0  0  0  0  0  0  0  0  0  0  0
   -2.2002    0.1125    2.9242 H   0  0  0  0  0  0  0  0  0  0  0  0
   -2.7449    1.2898    1.7205 H   0  0  0  0  0  0  0  0  0  0  0  0
   -1.2538    0.4339    0.0299 H   0  0  0  0  0  0  0  0  0  0  0  0
   -3.0602   -1.5136    1.5119 H   0  0  0  0  0  0  0  0  0  0  0  0
   -4.8605   -1.8060   -2.6169 H   0  0  0  0  0  0  0  0  0  0  0  0
   -5.7354   -0.4385   -1.8952 H   0  0  0  0  0  0  0  0  0  0  0  0
   -5.7699   -4.0735   -2.4442 H   0  0  0  0  0  0  0  0  0  0  0  0
   -7.8009   -5.4921   -2.2707 H   0  0  0  0  0  0  0  0  0  0  0  0
   -9.8315   -4.5618   -1.3584 H   0  0  0  0  0  0  0  0  0  0  0  0
   -9.8836   -2.2180   -0.6024 H   0  0  0  0  0  0  0  0  0  0  0  0
   -7.8675   -0.8005   -0.7740 H   0  0  0  0  0  0  0  0  0  0  0  0
    1.2692    0.1356    1.2539 H   0  0  0  0  0  0  0  0  0  0  0  0
    1.5042   -2.8047    1.6339 H   0  0  0  0  0  0  0  0  0  0  0  0
    2.7546   -1.9401   -0.2695 H   0  0  0  0  0  0  0  0  0  0  0  0
    3.9055   -2.4644    0.9844 H   0  0  0  0  0  0  0  0  0  0  0  0
    3.3614    0.3305    1.4772 H   0  0  0  0  0  0  0  0  0  0  0  0
    4.9370   -1.8781   -1.0451 H   0  0  0  0  0  0  0  0  0  0  0  0
    6.8693   -1.3027   -2.3903 H   0  0  0  0  0  0  0  0  0  0  0  0
    7.0653    2.4885   -0.4125 H   0  0  0  0  0  0  0  0  0  0  0  0
    5.0864    1.8653    0.9393 H   0  0  0  0  0  0  0  0  0  0  0  0
    9.1601    2.5544   -1.0910 H   0  0  0  0  0  0  0  0  0  0  0  0
    8.9889    2.9421   -2.8367 H   0  0  0  0  0  0  0  0  0  0  0  0
    8.4541   -0.6647   -3.3908 H   0  0  0  0  0  0  0  0  0  0  0  0
    3.3988   -3.4418    3.6441 H   0  0  0  0  0  0  0  0  0  0  0  0
  1  2  1  0
  2  3  1  0
  2  4  2  3
  4  5  1  0
  5  6  1  0
  6  7  1  0
  7  8  1  0
  8  9  1  0
  9 10  1  0
 10 11  2  0
 10 12  1  0
 12 13  1  0
 13 14  1  0
 14 15  2  0
 15 16  1  0
 16 17  2  0
 17 18  1  0
 18 19  2  0
  8 20  1  0
 20 21  2  0
 20 22  1  0
 22 23  1  0
 23 24  1  0
 24 25  1  0
 25 26  1  0
 26 27  2  0
 27 28  1  0
 28 29  2  0
 29 30  1  0
 30 31  2  0
 29 32  1  0
 32 33  1  0
 32 34  2  3
 23 35  1  0
 35 36  1  0
 35 37  2  0
 19 14  1  0
 31 26  1  0
  1 38  1  0
  1 39  1  0
  3 40  1  0
  3 41  1  0
  5 42  1  0
  5 43  1  0
  6 44  1  0
  6 45  1  0
  7 46  1  0
  7 47  1  0
  8 48  1  6
  9 49  1  0
 13 50  1  0
 13 51  1  0
 15 52  1  0
 16 53  1  0
 17 54  1  0
 18 55  1  0
 19 56  1  0
 22 57  1  0
 23 58  1  1
 24 59  1  0
 24 60  1  0
 25 61  1  0
 27 62  1  0
 28 63  1  0
 30 64  1  0
 31 65  1  0
 33 66  1  0
 33 67  1  0
 34 68  1  0
 36 69  1  0
M  END
$$$$
[H]c1nc2c(nc1N([H])C(=O)c1c(C([H])([H])[H])nn(C([H])([H])[H])c1[H])c(-c1c([H])c([H])c([H])c(N([H])C(=O)C#CC([H])([H])C([H])([H])N(C([H])([H])[H])C([H])([H])[H])c1[H])nn2[H]
     RDKit          3D

 60 63  0  0  0  0  0  0  0  0999 V2000
   -9.9127    1.1997   -2.2775 C   0  0  0  0  0  0  0  0  0  0  0  0
   -9.5901    1.5630   -0.9107 N   0  0  0  0  0  0  0  0  0  0  0  0
   -9.7593    2.9946   -0.7755 C   0  0  0  0  0  0  0  0  0  0  0  0
   -8.1873    1.2570   -0.7046 C   0  0  0  0  0  0  0  0  0  0  0  0
   -7.9439   -0.2419   -0.7266 C   0  0  0  0  0  0  0  0  0  0  0  0
   -6.5291   -0.5448   -0.5186 C   0  0  0  0  0  0  0  0  0  0  0  0
   -5.3669   -0.7965   -0.3288 C   0  0  0  0  0  0  0  0  0  0  0  0
   -3.9547   -1.1081   -0.0778 C   0  0  0  0  0  0  0  0  0  0  0  0
   -3.4082   -1.7801   -0.9679 O   0  0  0  0  0  0  0  0  0  0  0  0
   -3.3082   -0.6698    1.0768 N   0  0  0  0  0  0  0  0  0  0  0  0
   -1.9646   -0.8955    1.4526 C   0  0  0  0  0  0  0  0  0  0  0  0
   -1.4725   -0.1448    2.5377 C   0  0  0  0  0  0  0  0  0  0  0  0
   -0.1886   -0.3299    2.9510 C   0  0  0  0  0  0  0  0  0  0  0  0
    0.6170   -1.2344    2.3211 C   0  0  0  0  0  0  0  0  0  0  0  0
    0.1894   -1.9967    1.2546 C   0  0  0  0  0  0  0  0  0  0  0  0
   -1.1245   -1.7950    0.8458 C   0  0  0  0  0  0  0  0  0  0  0  0
    1.0523   -2.9448    0.6027 C   0  0  0  0  0  0  0  0  0  0  0  0
    0.7247   -4.2020    0.2437 N   0  0  0  0  0  0  0  0  0  0  0  0
    1.7690   -4.7783   -0.3318 N   0  0  0  0  0  0  0  0  0  0  0  0
    2.8085   -3.9190   -0.3669 C   0  0  0  0  0  0  0  0  0  0  0  0
    4.0644   -3.9620   -0.8151 N   0  0  0  0  0  0  0  0  0  0  0  0
    4.8740   -2.8637   -0.6814 C   0  0  0  0  0  0  0  0  0  0  0  0
    4.4442   -1.7051   -0.0988 C   0  0  0  0  0  0  0  0  0  0  0  0
    5.1906   -0.5225    0.0877 N   0  0  0  0  0  0  0  0  0  0  0  0
    6.5133   -0.3324   -0.2998 C   0  0  0  0  0  0  0  0  0  0  0  0
    7.1535   -1.2597   -0.8696 O   0  0  0  0  0  0  0  0  0  0  0  0
    7.2975    0.8957   -0.1082 C   0  0  0  0  0  0  0  0  0  0  0  0
    8.6928    0.9403   -0.1631 C   0  0  0  0  0  0  0  0  0  0  0  0
    9.0522    2.2000    0.0862 N   0  0  0  0  0  0  0  0  0  0  0  0
   10.4530    2.6381    0.1149 C   0  0  0  0  0  0  0  0  0  0  0  0
    7.9861    2.9165    0.2862 N   0  0  0  0  0  0  0  0  0  0  0  0
    6.8510    2.1548    0.1772 C   0  0  0  0  0  0  0  0  0  0  0  0
    5.4759    2.6933    0.3340 C   0  0  0  0  0  0  0  0  0  0  0  0
    3.1364   -1.6849    0.3586 N   0  0  0  0  0  0  0  0  0  0  0  0
    2.3650   -2.7560    0.2220 C   0  0  0  0  0  0  0  0  0  0  0  0
   -9.0013    1.0980   -2.9030 H   0  0  0  0  0  0  0  0  0  0  0  0
  -10.5233    2.0135   -2.7444 H   0  0  0  0  0  0  0  0  0  0  0  0
  -10.5446    0.2900   -2.3246 H   0  0  0  0  0  0  0  0  0  0  0  0
  -10.8548    3.2104   -0.9243 H   0  0  0  0  0  0  0  0  0  0  0  0
   -9.5223    3.3559    0.2388 H   0  0  0  0  0  0  0  0  0  0  0  0
   -9.1817    3.5723   -1.5175 H   0  0  0  0  0  0  0  0  0  0  0  0
   -7.8200    1.6386    0.2505 H   0  0  0  0  0  0  0  0  0  0  0  0
   -7.6429    1.7322   -1.5654 H   0  0  0  0  0  0  0  0  0  0  0  0
   -8.2426   -0.6563   -1.7296 H   0  0  0  0  0  0  0  0  0  0  0  0
   -8.5764   -0.7402    0.0202 H   0  0  0  0  0  0  0  0  0  0  0  0
   -3.9205   -0.1010    1.7427 H   0  0  0  0  0  0  0  0  0  0  0  0
   -2.1241    0.5778    3.0361 H   0  0  0  0  0  0  0  0  0  0  0  0
    0.2042    0.2544    3.8002 H   0  0  0  0  0  0  0  0  0  0  0  0
    1.6315   -1.3421    2.6908 H   0  0  0  0  0  0  0  0  0  0  0  0
   -1.4745   -2.3803    0.0309 H   0  0  0  0  0  0  0  0  0  0  0  0
    1.7737   -5.7678   -0.7045 H   0  0  0  0  0  0  0  0  0  0  0  0
    5.8866   -2.9556   -1.0640 H   0  0  0  0  0  0  0  0  0  0  0  0
    4.6457    0.2676    0.5764 H   0  0  0  0  0  0  0  0  0  0  0  0
    9.3739    0.1216   -0.3668 H   0  0  0  0  0  0  0  0  0  0  0  0
   11.0422    2.0591    0.8503 H   0  0  0  0  0  0  0  0  0  0  0  0
   10.5289    3.6991    0.4067 H   0  0  0  0  0  0  0  0  0  0  0  0
   10.9321    2.4454   -0.8768 H   0  0  0  0  0  0  0  0  0  0  0  0
    4.7801    2.3543   -0.4620 H   0  0  0  0  0  0  0  0  0  0  0  0
    5.5537    3.8188    0.3242 H   0  0  0  0  0  0  0  0  0  0  0  0
    5.0759    2.4491    1.3264 H   0  0  0  0  0  0  0  0  0  0  0  0
  1  2  1  0
  2  3  1  0
  2  4  1  0
  4  5  1  0
  5  6  1  0
  6  7  3  0
  7  8  1  0
  8  9  2  0
  8 10  1  0
 10 11  1  0
 11 12  2  0
 12 13  1  0
 13 14  2  0
 14 15  1  0
 15 16  2  0
 15 17  1  0
 17 18  2  0
 18 19  1  0
 19 20  1  0
 20 21  2  0
 21 22  1  0
 22 23  2  0
 23 24  1  0
 24 25  1  0
 25 26  2  0
 25 27  1  0
 27 28  2  0
 28 29  1  0
 29 30  1  0
 29 31  1  0
 31 32  2  0
 32 33  1  0
 23 34  1  0
 34 35  2  0
 16 11  1  0
 35 17  1  0
 35 20  1  0
 32 27  1  0
  1 36  1  0
  1 37  1  0
  1 38  1  0
  3 39  1  0
  3 40  1  0
  3 41  1  0
  4 42  1  0
  4 43  1  0
  5 44  1  0
  5 45  1  0
 10 46  1  0
 12 47  1  0
 13 48  1  0
 14 49  1  0
 16 50  1  0
 19 51  1  0
 22 52  1  0
 24 53  1  0
 28 54  1  0
 30 55  1  0
 30 56  1  0
 30 57  1  0
 33 58  1  0
 33 59  1  0
 33 60  1  0
M  END
$$$$
[H]OC(=O)C([H])(Oc1c([H])c([H])c([H])c2c1c(C(=O)C(=O)N([H])[H])c(C([H])([H])C([H])([H])[H])n2C([H])([H])c1c([H])c([H])c([H])c([H])c1[H])C([H])([H])[H]
     RDKit          3D

 51 53  0  0  0  0  0  0  0  0999 V2000
   -1.4126   -3.2317    1.6563 C   0  0  0  0  0  0  0  0  0  0  0  0
   -1.7394   -1.7478    1.6732 C   0  0  0  0  0  0  0  0  0  0  0  0
   -1.0585   -0.9881    0.5963 C   0  0  0  0  0  0  0  0  0  0  0  0
    0.3051   -0.6622    0.6743 C   0  0  0  0  0  0  0  0  0  0  0  0
    1.2482   -0.9689    1.7392 C   0  0  0  0  0  0  0  0  0  0  0  0
    1.3689   -0.1699    2.7195 O   0  0  0  0  0  0  0  0  0  0  0  0
    2.0357   -2.1795    1.6609 C   0  0  0  0  0  0  0  0  0  0  0  0
    2.9373   -2.5237    2.7327 N   0  0  0  0  0  0  0  0  0  0  0  0
    2.0017   -2.9863    0.7065 O   0  0  0  0  0  0  0  0  0  0  0  0
    0.5738    0.0057   -0.5013 C   0  0  0  0  0  0  0  0  0  0  0  0
    1.7904    0.5500   -0.9500 C   0  0  0  0  0  0  0  0  0  0  0  0
    2.8761    0.4184   -0.1109 O   0  0  0  0  0  0  0  0  0  0  0  0
    4.1574    0.8760   -0.3376 C   0  0  0  0  0  0  0  0  0  0  0  0
    5.1057   -0.3240   -0.2841 C   0  0  0  0  0  0  0  0  0  0  0  0
    4.6460    1.8129    0.7131 C   0  0  0  0  0  0  0  0  0  0  0  0
    5.9304    2.3132    0.5473 O   0  0  0  0  0  0  0  0  0  0  0  0
    3.9964    2.1681    1.7042 O   0  0  0  0  0  0  0  0  0  0  0  0
    1.8484    1.1733   -2.1700 C   0  0  0  0  0  0  0  0  0  0  0  0
    0.7010    1.2471   -2.9259 C   0  0  0  0  0  0  0  0  0  0  0  0
   -0.4796    0.7105   -2.4730 C   0  0  0  0  0  0  0  0  0  0  0  0
   -0.5740    0.0751   -1.2450 C   0  0  0  0  0  0  0  0  0  0  0  0
   -1.5732   -0.5372   -0.5604 N   0  0  0  0  0  0  0  0  0  0  0  0
   -2.9226   -0.6230   -1.0119 C   0  0  0  0  0  0  0  0  0  0  0  0
   -3.7975    0.5317   -0.7465 C   0  0  0  0  0  0  0  0  0  0  0  0
   -4.0119    1.4504   -1.7340 C   0  0  0  0  0  0  0  0  0  0  0  0
   -4.8139    2.5314   -1.5302 C   0  0  0  0  0  0  0  0  0  0  0  0
   -5.4388    2.7494   -0.3397 C   0  0  0  0  0  0  0  0  0  0  0  0
   -5.2614    1.8674    0.6776 C   0  0  0  0  0  0  0  0  0  0  0  0
   -4.4308    0.7593    0.4480 C   0  0  0  0  0  0  0  0  0  0  0  0
   -2.3502   -3.8337    1.6250 H   0  0  0  0  0  0  0  0  0  0  0  0
   -0.8849   -3.4098    0.6826 H   0  0  0  0  0  0  0  0  0  0  0  0
   -0.7923   -3.5284    2.5056 H   0  0  0  0  0  0  0  0  0  0  0  0
   -1.4215   -1.3747    2.6716 H   0  0  0  0  0  0  0  0  0  0  0  0
   -2.8193   -1.5794    1.6129 H   0  0  0  0  0  0  0  0  0  0  0  0
    2.6605   -2.5483    3.7243 H   0  0  0  0  0  0  0  0  0  0  0  0
    3.9144   -2.7545    2.4518 H   0  0  0  0  0  0  0  0  0  0  0  0
    4.3020    1.4062   -1.2945 H   0  0  0  0  0  0  0  0  0  0  0  0
    6.0099   -0.1162    0.3181 H   0  0  0  0  0  0  0  0  0  0  0  0
    5.4448   -0.5336   -1.3347 H   0  0  0  0  0  0  0  0  0  0  0  0
    4.6147   -1.2081    0.1624 H   0  0  0  0  0  0  0  0  0  0  0  0
    6.1410    3.1454   -0.0027 H   0  0  0  0  0  0  0  0  0  0  0  0
    2.7739    1.5912   -2.5186 H   0  0  0  0  0  0  0  0  0  0  0  0
    0.7276    1.7321   -3.8865 H   0  0  0  0  0  0  0  0  0  0  0  0
   -1.3187    0.7916   -3.1108 H   0  0  0  0  0  0  0  0  0  0  0  0
   -2.8839   -0.8880   -2.0923 H   0  0  0  0  0  0  0  0  0  0  0  0
   -3.4443   -1.5052   -0.5362 H   0  0  0  0  0  0  0  0  0  0  0  0
   -3.5508    1.3172   -2.6885 H   0  0  0  0  0  0  0  0  0  0  0  0
   -4.9731    3.2540   -2.3300 H   0  0  0  0  0  0  0  0  0  0  0  0
   -6.0741    3.6123   -0.1894 H   0  0  0  0  0  0  0  0  0  0  0  0
   -5.7521    2.0340    1.6195 H   0  0  0  0  0  0  0  0  0  0  0  0
   -4.3322    0.0982    1.2817 H   0  0  0  0  0  0  0  0  0  0  0  0
  1  2  1  0
  2  3  1  0
  3  4  2  0
  4  5  1  0
  5  6  2  0
  5  7  1  0
  7  8  1  0
  7  9  2  0
  4 10  1  0
 10 11  2  0
 11 12  1  0
 12 13  1  0
 13 14  1  0
 13 15  1  0
 15 16  1  0
 15 17  2  0
 11 18  1  0
 18 19  2  0
 19 20  1  0
 20 21  2  0
 21 22  1  0
 22 23  1  0
 23 24  1  0
 24 25  2  0
 25 26  1  0
 26 27  2  0
 27 28  1  0
 28 29  2  0
 22  3  1  0
 29 24  1  0
 21 10  1  0
  1 30  1  0
  1 31  1  0
  1 32  1  0
  2 33  1  0
  2 34  1  0
  8 35  1  0
  8 36  1  0
 13 37  1  0
 14 38  1  0
 14 39  1  0
 14 40  1  0
 16 41  1  0
 18 42  1  0
 19 43  1  0
 20 44  1  0
 23 45  1  0
 23 46  1  0
 25 47  1  0
 26 48  1  0
 27 49  1  0
 28 50  1  0
 29 51  1  0
M  END
$$$$
[H]O[C@]1([H])[C@]([H])([C@]([H])(C([H])([H])[H])C([H])([H])C([H])([H])[H])O[C@@]1([H])n1c([H])nc2c(N([H])[H])nc([H])nc21
     RDKit          3D

 36 38  0  0  0  0  0  0  0  0999 V2000
   -4.8699    0.0475   -1.1549 C   0  0  0  0  0  0  0  0  0  0  0  0
   -3.3801   -0.2303   -1.1574 C   0  0  0  0  0  0  0  0  0  0  0  0
   -2.7562    0.7067   -0.1259 C   0  0  1  0  0  0  0  0  0  0  0  0
   -3.3730    0.3955    1.1974 C   0  0  0  0  0  0  0  0  0  0  0  0
   -1.2679    0.6463   -0.1597 C   0  0  2  0  0  0  0  0  0  0  0  0
   -0.6981   -0.5973    0.0989 O   0  0  0  0  0  0  0  0  0  0  0  0
    0.3197   -0.0774    0.8865 C   0  0  2  0  0  0  0  0  0  0  0  0
   -0.4895    1.2213    0.9404 C   0  0  2  0  0  0  0  0  0  0  0  0
   -1.0482    1.3702    2.1743 O   0  0  0  0  0  0  0  0  0  0  0  0
    1.5933    0.0771    0.2255 N   0  0  0  0  0  0  0  0  0  0  0  0
    1.9535    1.0248   -0.6584 C   0  0  0  0  0  0  0  0  0  0  0  0
    3.2270    0.8126   -1.0365 N   0  0  0  0  0  0  0  0  0  0  0  0
    3.6944   -0.2745   -0.3970 C   0  0  0  0  0  0  0  0  0  0  0  0
    4.9361   -0.9120   -0.4337 C   0  0  0  0  0  0  0  0  0  0  0  0
    5.9404   -0.3700   -1.2787 N   0  0  0  0  0  0  0  0  0  0  0  0
    5.1112   -1.9922    0.3249 N   0  0  0  0  0  0  0  0  0  0  0  0
    4.0959   -2.4437    1.1048 C   0  0  0  0  0  0  0  0  0  0  0  0
    2.8998   -1.8275    1.1384 N   0  0  0  0  0  0  0  0  0  0  0  0
    2.6619   -0.7236    0.3884 C   0  0  0  0  0  0  0  0  0  0  0  0
   -5.0845    1.0378   -0.6973 H   0  0  0  0  0  0  0  0  0  0  0  0
   -5.4325   -0.7153   -0.5861 H   0  0  0  0  0  0  0  0  0  0  0  0
   -5.2782    0.0881   -2.1856 H   0  0  0  0  0  0  0  0  0  0  0  0
   -2.9868   -0.0066   -2.1802 H   0  0  0  0  0  0  0  0  0  0  0  0
   -3.2524   -1.2871   -0.8754 H   0  0  0  0  0  0  0  0  0  0  0  0
   -3.0957    1.7256   -0.4116 H   0  0  0  0  0  0  0  0  0  0  0  0
   -3.4891    1.3047    1.8443 H   0  0  0  0  0  0  0  0  0  0  0  0
   -2.8694   -0.4282    1.7432 H   0  0  0  0  0  0  0  0  0  0  0  0
   -4.4112    0.0440    1.0113 H   0  0  0  0  0  0  0  0  0  0  0  0
   -0.8997    0.9949   -1.1533 H   0  0  0  0  0  0  0  0  0  0  0  0
    0.3581   -0.6275    1.8482 H   0  0  0  0  0  0  0  0  0  0  0  0
    0.1610    2.1062    0.7028 H   0  0  0  0  0  0  0  0  0  0  0  0
   -0.5980    0.8172    2.8438 H   0  0  0  0  0  0  0  0  0  0  0  0
    1.3482    1.8551   -1.0412 H   0  0  0  0  0  0  0  0  0  0  0  0
    6.4394   -1.0479   -1.9096 H   0  0  0  0  0  0  0  0  0  0  0  0
    6.2151    0.6173   -1.3229 H   0  0  0  0  0  0  0  0  0  0  0  0
    4.3255   -3.3319    1.6920 H   0  0  0  0  0  0  0  0  0  0  0  0
  1  2  1  0
  2  3  1  0
  3  4  1  0
  3  5  1  0
  5  6  1  0
  6  7  1  0
  7  8  1  0
  8  9  1  0
  7 10  1  0
 10 11  1  0
 11 12  2  0
 12 13  1  0
 13 14  2  0
 14 15  1  0
 14 16  1  0
 16 17  2  0
 17 18  1  0
 18 19  2  0
  8  5  1  0
 19 10  1  0
 19 13  1  0
  1 20  1  0
  1 21  1  0
  1 22  1  0
  2 23  1  0
  2 24  1  0
  3 25  1  6
  4 26  1  0
  4 27  1  0
  4 28  1  0
  5 29  1  6
  7 30  1  1
  8 31  1  6
  9 32  1  0
 11 33  1  0
 15 34  1  0
 15 35  1  0
 17 36  1  0
M  END
$$$$
[H]Oc1c([H])c([H])c2c3c1O[C@@]1(C([H])([H])[H])c4c(c5c([H])c([H])c([H])c([H])c5n4[H])C([H])([H])[C@@]4(OC([H])([H])C([H])([H])[H])C([H])(N(C([H])([H])[H])C([H])([H])C([H])([H])C341)C2([H])[H]
     RDKit          3D

 59 65  0  0  0  0  0  0  0  0999 V2000
    1.2170   -3.2071   -1.5950 C   0  0  0  0  0  0  0  0  0  0  0  0
    0.2907   -2.2021   -2.2048 C   0  0  0  0  0  0  0  0  0  0  0  0
    0.0015   -1.0684   -1.6673 O   0  0  0  0  0  0  0  0  0  0  0  0
   -0.5633   -0.6696   -0.5505 C   0  0  2  0  0  0  0  0  0  0  0  0
    0.2689   -1.0526    0.6356 C   0  0  0  0  0  0  0  0  0  0  0  0
    1.5440   -0.3328    0.6297 C   0  0  0  0  0  0  0  0  0  0  0  0
    1.7121    0.8709    0.0182 C   0  0  0  0  0  0  0  0  0  0  0  0
    3.0142    1.2483    0.2152 N   0  0  0  0  0  0  0  0  0  0  0  0
    3.6717    0.3436    0.9186 C   0  0  0  0  0  0  0  0  0  0  0  0
    4.9631    0.2388    1.3781 C   0  0  0  0  0  0  0  0  0  0  0  0
    5.3945   -0.8650    2.1209 C   0  0  0  0  0  0  0  0  0  0  0  0
    4.4572   -1.8554    2.3754 C   0  0  0  0  0  0  0  0  0  0  0  0
    3.1746   -1.7448    1.9154 C   0  0  0  0  0  0  0  0  0  0  0  0
    2.7695   -0.6614    1.1921 C   0  0  0  0  0  0  0  0  0  0  0  0
    0.6386    1.5815   -0.7130 C   0  0  2  0  0  0  0  0  0  0  0  0
    1.0413    1.9082   -2.1240 C   0  0  0  0  0  0  0  0  0  0  0  0
    0.3264    2.8652   -0.0884 O   0  0  0  0  0  0  0  0  0  0  0  0
   -0.6635    2.6035    0.8812 C   0  0  0  0  0  0  0  0  0  0  0  0
   -1.2305    1.4022    0.5909 C   0  0  0  0  0  0  0  0  0  0  0  0
   -2.2148    0.7614    1.2661 C   0  0  0  0  0  0  0  0  0  0  0  0
   -2.6773   -0.5800    0.8611 C   0  0  0  0  0  0  0  0  0  0  0  0
   -1.9749   -1.1710   -0.3186 C   0  0  0  0  0  0  0  0  0  0  0  0
   -2.8013   -0.8990   -1.4753 N   0  0  0  0  0  0  0  0  0  0  0  0
   -4.1157   -1.4253   -1.3104 C   0  0  0  0  0  0  0  0  0  0  0  0
   -2.8657    0.5109   -1.7788 C   0  0  0  0  0  0  0  0  0  0  0  0
   -1.5488    1.1852   -1.7977 C   0  0  0  0  0  0  0  0  0  0  0  0
   -0.6707    0.8327   -0.6276 C   0  0  0  0  0  0  0  0  0  0  0  0
   -2.7067    1.3943    2.3705 C   0  0  0  0  0  0  0  0  0  0  0  0
   -2.1953    2.6431    2.7606 C   0  0  0  0  0  0  0  0  0  0  0  0
   -1.1747    3.2300    2.0038 C   0  0  0  0  0  0  0  0  0  0  0  0
   -0.6677    4.4576    2.3838 O   0  0  0  0  0  0  0  0  0  0  0  0
    0.6434   -3.8935   -0.9031 H   0  0  0  0  0  0  0  0  0  0  0  0
    1.6189   -3.9221   -2.3615 H   0  0  0  0  0  0  0  0  0  0  0  0
    2.0857   -2.8180   -1.0779 H   0  0  0  0  0  0  0  0  0  0  0  0
   -0.6033   -2.8021   -2.6241 H   0  0  0  0  0  0  0  0  0  0  0  0
    0.7974   -1.9611   -3.2139 H   0  0  0  0  0  0  0  0  0  0  0  0
    0.4303   -2.1684    0.6848 H   0  0  0  0  0  0  0  0  0  0  0  0
   -0.2025   -0.8037    1.6211 H   0  0  0  0  0  0  0  0  0  0  0  0
    3.4201    2.1326   -0.1460 H   0  0  0  0  0  0  0  0  0  0  0  0
    5.6978    0.9998    1.1871 H   0  0  0  0  0  0  0  0  0  0  0  0
    6.4162   -0.9349    2.4773 H   0  0  0  0  0  0  0  0  0  0  0  0
    4.7613   -2.7304    2.9524 H   0  0  0  0  0  0  0  0  0  0  0  0
    2.4617   -2.5258    2.1242 H   0  0  0  0  0  0  0  0  0  0  0  0
    0.4446    2.7787   -2.4927 H   0  0  0  0  0  0  0  0  0  0  0  0
    1.0126    1.0536   -2.7964 H   0  0  0  0  0  0  0  0  0  0  0  0
    2.0947    2.2963   -2.0648 H   0  0  0  0  0  0  0  0  0  0  0  0
   -3.7834   -0.5393    0.6943 H   0  0  0  0  0  0  0  0  0  0  0  0
   -2.5539   -1.3111    1.7233 H   0  0  0  0  0  0  0  0  0  0  0  0
   -2.0019   -2.2723   -0.1895 H   0  0  0  0  0  0  0  0  0  0  0  0
   -4.4851   -1.9333   -2.2435 H   0  0  0  0  0  0  0  0  0  0  0  0
   -4.1709   -2.2050   -0.5169 H   0  0  0  0  0  0  0  0  0  0  0  0
   -4.8107   -0.5782   -1.1019 H   0  0  0  0  0  0  0  0  0  0  0  0
   -3.3106    0.5881   -2.8058 H   0  0  0  0  0  0  0  0  0  0  0  0
   -3.6195    0.9938   -1.1086 H   0  0  0  0  0  0  0  0  0  0  0  0
   -1.0190    0.8978   -2.7311 H   0  0  0  0  0  0  0  0  0  0  0  0
   -1.7335    2.2943   -1.8173 H   0  0  0  0  0  0  0  0  0  0  0  0
   -3.4909    0.9623    2.9688 H   0  0  0  0  0  0  0  0  0  0  0  0
   -2.5747    3.1578    3.6324 H   0  0  0  0  0  0  0  0  0  0  0  0
    0.0607    4.9011    1.8636 H   0  0  0  0  0  0  0  0  0  0  0  0
  1  2  1  0
  2  3  1  0
  4  3  1  6
  4  5  1  0
  5  6  1  0
  6  7  2  0
  7  8  1  0
  8  9  1  0
  9 10  2  0
 10 11  1  0
 11 12  2  0
 12 13  1  0
 13 14  2  0
  7 15  1  0
 15 16  1  6
 15 17  1  0
 17 18  1  0
 18 19  2  0
 19 20  1  0
 20 21  1  0
 21 22  1  0
 22 23  1  0
 23 24  1  0
 23 25  1  0
 25 26  1  0
 26 27  1  0
 20 28  2  0
 28 29  1  0
 29 30  2  0
 30 31  1  0
 22  4  1  0
 27  4  1  0
 14  6  1  0
 27 15  1  0
 14  9  1  0
 30 18  1  0
 27 19  1  0
  1 32  1  0
  1 33  1  0
  1 34  1  0
  2 35  1  0
  2 36  1  0
  5 37  1  0
  5 38  1  0
  8 39  1  0
 10 40  1  0
 11 41  1  0
 12 42  1  0
 13 43  1  0
 16 44  1  0
 16 45  1  0
 16 46  1  0
 21 47  1  0
 21 48  1  0
 22 49  1  0
 24 50  1  0
 24 51  1  0
 24 52  1  0
 25 53  1  0
 25 54  1  0
 26 55  1  0
 26 56  1  0
 28 57  1  0
 29 58  1  0
 31 59  1  0
M  END
$$$$
[H]c1c([H])c([H])c(-c2c([H])c([H])c(OC([H])([H])C(=O)N([H])N=C(c3c([H])c([H])c(C(F)(F)F)c([H])c3[H])c3c([H])c([H])c(C([H])([H])C([H])([H])C([H])([H])[H])c([H])c3[H])c([H])c2[H])c([H])c1[H]
     RDKit          3D

 65 68  0  0  0  0  0  0  0  0999 V2000
   -8.5102    4.8181    0.1839 C   0  0  0  0  0  0  0  0  0  0  0  0
   -7.4422    3.7568    0.3495 C   0  0  0  0  0  0  0  0  0  0  0  0
   -6.7089    3.4948   -0.9798 C   0  0  0  0  0  0  0  0  0  0  0  0
   -5.6579    2.5048   -0.6936 C   0  0  0  0  0  0  0  0  0  0  0  0
   -5.9554    1.1714   -0.5869 C   0  0  0  0  0  0  0  0  0  0  0  0
   -4.9430    0.2365   -0.3583 C   0  0  0  0  0  0  0  0  0  0  0  0
   -3.6278    0.5817   -0.2322 C   0  0  0  0  0  0  0  0  0  0  0  0
   -3.3218    1.9370   -0.3402 C   0  0  0  0  0  0  0  0  0  0  0  0
   -4.3258    2.8477   -0.5642 C   0  0  0  0  0  0  0  0  0  0  0  0
   -2.5149   -0.3881   -0.0348 C   0  0  0  0  0  0  0  0  0  0  0  0
   -1.4214    0.1432    0.2562 N   0  0  0  0  0  0  0  0  0  0  0  0
   -0.1928   -0.3265    0.5092 N   0  0  0  0  0  0  0  0  0  0  0  0
    0.4964   -1.0797   -0.4857 C   0  0  0  0  0  0  0  0  0  0  0  0
   -0.0691   -1.3413   -1.5653 O   0  0  0  0  0  0  0  0  0  0  0  0
    1.9065   -1.5687   -0.2745 C   0  0  0  0  0  0  0  0  0  0  0  0
    2.6955   -0.4414   -0.1165 O   0  0  0  0  0  0  0  0  0  0  0  0
    3.9993   -0.2937    0.0743 C   0  0  0  0  0  0  0  0  0  0  0  0
    4.5072    1.0260    0.1571 C   0  0  0  0  0  0  0  0  0  0  0  0
    5.8418    1.2362    0.3364 C   0  0  0  0  0  0  0  0  0  0  0  0
    6.7488    0.1966    0.4475 C   0  0  0  0  0  0  0  0  0  0  0  0
    6.2693   -1.0701    0.3741 C   0  0  0  0  0  0  0  0  0  0  0  0
    4.9026   -1.3026    0.1898 C   0  0  0  0  0  0  0  0  0  0  0  0
    8.1624    0.4899    0.6202 C   0  0  0  0  0  0  0  0  0  0  0  0
    8.7034    1.6503    0.0196 C   0  0  0  0  0  0  0  0  0  0  0  0
   10.0100    1.9786    0.1910 C   0  0  0  0  0  0  0  0  0  0  0  0
   10.8504    1.1844    0.9627 C   0  0  0  0  0  0  0  0  0  0  0  0
   10.3452    0.0536    1.5528 C   0  0  0  0  0  0  0  0  0  0  0  0
    9.0221   -0.2851    1.3813 C   0  0  0  0  0  0  0  0  0  0  0  0
   -2.8020   -1.8082   -0.0722 C   0  0  0  0  0  0  0  0  0  0  0  0
   -2.2264   -2.6350    0.9025 C   0  0  0  0  0  0  0  0  0  0  0  0
   -2.3581   -4.0010    0.8482 C   0  0  0  0  0  0  0  0  0  0  0  0
   -3.0757   -4.5420   -0.1997 C   0  0  0  0  0  0  0  0  0  0  0  0
   -3.6504   -3.7388   -1.1713 C   0  0  0  0  0  0  0  0  0  0  0  0
   -3.5249   -2.3767   -1.1259 C   0  0  0  0  0  0  0  0  0  0  0  0
   -3.2225   -5.9979   -0.3028 C   0  0  0  0  0  0  0  0  0  0  0  0
   -3.8836   -6.3200   -1.4796 F   0  0  0  0  0  0  0  0  0  0  0  0
   -1.9727   -6.5611   -0.2217 F   0  0  0  0  0  0  0  0  0  0  0  0
   -3.9954   -6.3856    0.8012 F   0  0  0  0  0  0  0  0  0  0  0  0
   -8.6417    5.0343   -0.8885 H   0  0  0  0  0  0  0  0  0  0  0  0
   -9.4481    4.4019    0.6562 H   0  0  0  0  0  0  0  0  0  0  0  0
   -8.2022    5.7023    0.7649 H   0  0  0  0  0  0  0  0  0  0  0  0
   -7.9206    2.7845    0.6729 H   0  0  0  0  0  0  0  0  0  0  0  0
   -6.7327    4.0833    1.1091 H   0  0  0  0  0  0  0  0  0  0  0  0
   -6.2870    4.4553   -1.3493 H   0  0  0  0  0  0  0  0  0  0  0  0
   -7.3702    3.0860   -1.7595 H   0  0  0  0  0  0  0  0  0  0  0  0
   -6.9896    0.8246   -0.6786 H   0  0  0  0  0  0  0  0  0  0  0  0
   -5.2557   -0.8065   -0.2432 H   0  0  0  0  0  0  0  0  0  0  0  0
   -2.2811    2.2304   -0.2515 H   0  0  0  0  0  0  0  0  0  0  0  0
   -4.0582    3.8908   -0.6427 H   0  0  0  0  0  0  0  0  0  0  0  0
    0.2677   -0.1515    1.4572 H   0  0  0  0  0  0  0  0  0  0  0  0
    1.9947   -2.1981    0.6402 H   0  0  0  0  0  0  0  0  0  0  0  0
    2.1885   -2.2131   -1.1192 H   0  0  0  0  0  0  0  0  0  0  0  0
    3.7644    1.8044    0.0624 H   0  0  0  0  0  0  0  0  0  0  0  0
    6.2069    2.2491    0.4043 H   0  0  0  0  0  0  0  0  0  0  0  0
    6.9696   -1.8916    0.4544 H   0  0  0  0  0  0  0  0  0  0  0  0
    4.5360   -2.3324    0.1401 H   0  0  0  0  0  0  0  0  0  0  0  0
    8.0269    2.2421   -0.5746 H   0  0  0  0  0  0  0  0  0  0  0  0
   10.4137    2.8811   -0.2718 H   0  0  0  0  0  0  0  0  0  0  0  0
   11.8709    1.4621    1.0872 H   0  0  0  0  0  0  0  0  0  0  0  0
   11.0119   -0.5909    2.1602 H   0  0  0  0  0  0  0  0  0  0  0  0
    8.6072   -1.1672    1.8348 H   0  0  0  0  0  0  0  0  0  0  0  0
   -1.6799   -2.1457    1.6931 H   0  0  0  0  0  0  0  0  0  0  0  0
   -1.8882   -4.6106    1.6332 H   0  0  0  0  0  0  0  0  0  0  0  0
   -4.2128   -4.1589   -1.9952 H   0  0  0  0  0  0  0  0  0  0  0  0
   -3.9483   -1.7091   -1.8683 H   0  0  0  0  0  0  0  0  0  0  0  0
  1  2  1  0
  2  3  1  0
  3  4  1  0
  4  5  2  0
  5  6  1  0
  6  7  2  0
  7  8  1  0
  8  9  2  0
  7 10  1  0
 10 11  2  3
 11 12  1  0
 12 13  1  0
 13 14  2  0
 13 15  1  0
 15 16  1  0
 16 17  1  0
 17 18  2  0
 18 19  1  0
 19 20  2  0
 20 21  1  0
 21 22  2  0
 20 23  1  0
 23 24  2  0
 24 25  1  0
 25 26  2  0
 26 27  1  0
 27 28  2  0
 10 29  1  0
 29 30  2  0
 30 31  1  0
 31 32  2  0
 32 33  1  0
 33 34  2  0
 32 35  1  0
 35 36  1  0
 35 37  1  0
 35 38  1  0
  9  4  1  0
 22 17  1  0
 28 23  1  0
 34 29  1  0
  1 39  1  0
  1 40  1  0
  1 41  1  0
  2 42  1  0
  2 43  1  0
  3 44  1  0
  3 45  1  0
  5 46  1  0
  6 47  1  0
  8 48  1  0
  9 49  1  0
 12 50  1  0
 15 51  1  0
 15 52  1  0
 18 53  1  0
 19 54  1  0
 21 55  1  0
 22 56  1  0
 24 57  1  0
 25 58  1  0
 26 59  1  0
 27 60  1  0
 28 61  1  0
 30 62  1  0
 31 63  1  0
 33 64  1  0
 34 65  1  0
M  END
$$$$
[H]OC1(C([H])([H])[H])C([H])([H])N(c2nc(N3C([H])([H])C([H])([H])OC([H])([H])C3([H])[H])c([H])c(-c3c(C([H])([H])[H])nc([H])c(N([H])C(=O)c4c([H])c([H])c([H])c(C(F)(C([H])([H])[H])C([H])([H])[H])c4[H])c3[H])c2[H])C1([H])[H]
     RDKit          3D

 72 76  0  0  0  0  0  0  0  0999 V2000
   -1.6437   -2.8167   -2.2516 C   0  0  0  0  0  0  0  0  0  0  0  0
   -0.4411   -2.4085   -1.5252 C   0  0  0  0  0  0  0  0  0  0  0  0
    0.7231   -3.0165   -1.7559 N   0  0  0  0  0  0  0  0  0  0  0  0
    1.8964   -2.7238   -1.1924 C   0  0  0  0  0  0  0  0  0  0  0  0
    1.9232   -1.6813   -0.2718 C   0  0  0  0  0  0  0  0  0  0  0  0
    3.2215   -1.3194    0.2432 N   0  0  0  0  0  0  0  0  0  0  0  0
    4.3229   -1.2553   -0.6121 C   0  0  0  0  0  0  0  0  0  0  0  0
    4.1227   -1.5037   -1.8680 O   0  0  0  0  0  0  0  0  0  0  0  0
    5.6899   -0.9455   -0.2674 C   0  0  0  0  0  0  0  0  0  0  0  0
    6.6607   -1.9396   -0.5281 C   0  0  0  0  0  0  0  0  0  0  0  0
    8.0000   -1.7149   -0.2887 C   0  0  0  0  0  0  0  0  0  0  0  0
    8.3862   -0.4990    0.2155 C   0  0  0  0  0  0  0  0  0  0  0  0
    7.4283    0.5012    0.4813 C   0  0  0  0  0  0  0  0  0  0  0  0
    6.0995    0.2663    0.2399 C   0  0  0  0  0  0  0  0  0  0  0  0
    7.8930    1.8146    0.9862 C   0  0  0  0  0  0  0  0  0  0  0  0
    8.7074    2.5139   -0.1033 C   0  0  0  0  0  0  0  0  0  0  0  0
    8.7371    1.6963    2.2377 C   0  0  0  0  0  0  0  0  0  0  0  0
    6.8167    2.6228    1.2900 F   0  0  0  0  0  0  0  0  0  0  0  0
    0.7728   -1.0315    0.0050 C   0  0  0  0  0  0  0  0  0  0  0  0
   -0.4015   -1.3574   -0.5863 C   0  0  0  0  0  0  0  0  0  0  0  0
   -1.7021   -0.7321   -0.3624 C   0  0  0  0  0  0  0  0  0  0  0  0
   -1.9245    0.6349   -0.5640 C   0  0  0  0  0  0  0  0  0  0  0  0
   -3.1621    1.2037   -0.3845 C   0  0  0  0  0  0  0  0  0  0  0  0
   -4.1970    0.4019    0.0058 N   0  0  0  0  0  0  0  0  0  0  0  0
   -4.0600   -0.9204    0.2207 C   0  0  0  0  0  0  0  0  0  0  0  0
   -2.8190   -1.4667    0.0342 C   0  0  0  0  0  0  0  0  0  0  0  0
   -5.2268   -1.6589    0.6012 N   0  0  0  0  0  0  0  0  0  0  0  0
   -5.2140   -2.7918    1.4832 C   0  0  0  0  0  0  0  0  0  0  0  0
   -6.1587   -3.8140    0.8402 C   0  0  0  0  0  0  0  0  0  0  0  0
   -7.4532   -3.3369    0.9078 O   0  0  0  0  0  0  0  0  0  0  0  0
   -7.5843   -1.9718    0.8858 C   0  0  0  0  0  0  0  0  0  0  0  0
   -6.5394   -1.2606    0.0595 C   0  0  0  0  0  0  0  0  0  0  0  0
   -3.4199    2.5778   -0.5549 N   0  0  0  0  0  0  0  0  0  0  0  0
   -3.0456    3.9005   -0.1187 C   0  0  0  0  0  0  0  0  0  0  0  0
   -4.4552    4.3854   -0.4441 C   0  0  0  0  0  0  0  0  0  0  0  0
   -5.5056    4.0807    0.6011 C   0  0  0  0  0  0  0  0  0  0  0  0
   -4.5662    5.6109   -1.0497 O   0  0  0  0  0  0  0  0  0  0  0  0
   -4.3572    3.2585   -1.4773 C   0  0  0  0  0  0  0  0  0  0  0  0
   -1.3711   -3.2142   -3.2889 H   0  0  0  0  0  0  0  0  0  0  0  0
   -2.1455   -3.6766   -1.7658 H   0  0  0  0  0  0  0  0  0  0  0  0
   -2.3467   -1.9848   -2.5020 H   0  0  0  0  0  0  0  0  0  0  0  0
    2.7828   -3.2733   -1.4211 H   0  0  0  0  0  0  0  0  0  0  0  0
    3.3244   -1.1153    1.2492 H   0  0  0  0  0  0  0  0  0  0  0  0
    6.3189   -2.8782   -0.9229 H   0  0  0  0  0  0  0  0  0  0  0  0
    8.7274   -2.5162   -0.4973 H   0  0  0  0  0  0  0  0  0  0  0  0
    9.4171   -0.2721    0.4221 H   0  0  0  0  0  0  0  0  0  0  0  0
    5.3834    1.0390    0.4553 H   0  0  0  0  0  0  0  0  0  0  0  0
    9.7474    2.1006   -0.0719 H   0  0  0  0  0  0  0  0  0  0  0  0
    8.7481    3.5900    0.1379 H   0  0  0  0  0  0  0  0  0  0  0  0
    8.2229    2.3151   -1.0874 H   0  0  0  0  0  0  0  0  0  0  0  0
    8.2139    1.1538    3.0151 H   0  0  0  0  0  0  0  0  0  0  0  0
    9.7140    1.2569    1.9664 H   0  0  0  0  0  0  0  0  0  0  0  0
    8.9458    2.7452    2.5467 H   0  0  0  0  0  0  0  0  0  0  0  0
    0.7695   -0.2145    0.7293 H   0  0  0  0  0  0  0  0  0  0  0  0
   -1.0990    1.2424   -0.8714 H   0  0  0  0  0  0  0  0  0  0  0  0
   -2.7369   -2.5372    0.2133 H   0  0  0  0  0  0  0  0  0  0  0  0
   -4.2340   -3.2596    1.6398 H   0  0  0  0  0  0  0  0  0  0  0  0
   -5.6908   -2.4443    2.4367 H   0  0  0  0  0  0  0  0  0  0  0  0
   -5.8137   -4.0416   -0.1948 H   0  0  0  0  0  0  0  0  0  0  0  0
   -6.0950   -4.7483    1.4005 H   0  0  0  0  0  0  0  0  0  0  0  0
   -8.6035   -1.6415    0.5759 H   0  0  0  0  0  0  0  0  0  0  0  0
   -7.4643   -1.5990    1.9428 H   0  0  0  0  0  0  0  0  0  0  0  0
   -6.6814   -0.1738    0.1552 H   0  0  0  0  0  0  0  0  0  0  0  0
   -6.6124   -1.5531   -1.0230 H   0  0  0  0  0  0  0  0  0  0  0  0
   -2.7504    3.9686    0.9473 H   0  0  0  0  0  0  0  0  0  0  0  0
   -2.3386    4.4567   -0.7461 H   0  0  0  0  0  0  0  0  0  0  0  0
   -5.1230    3.3674    1.3585 H   0  0  0  0  0  0  0  0  0  0  0  0
   -5.7431    5.0298    1.1141 H   0  0  0  0  0  0  0  0  0  0  0  0
   -6.3862    3.6592    0.0478 H   0  0  0  0  0  0  0  0  0  0  0  0
   -5.4161    5.6127   -1.5905 H   0  0  0  0  0  0  0  0  0  0  0  0
   -3.8773    3.5613   -2.4165 H   0  0  0  0  0  0  0  0  0  0  0  0
   -5.3106    2.7419   -1.6086 H   0  0  0  0  0  0  0  0  0  0  0  0
  1  2  1  0
  2  3  2  0
  3  4  1  0
  4  5  2  0
  5  6  1  0
  6  7  1  0
  7  8  2  0
  7  9  1  0
  9 10  2  0
 10 11  1  0
 11 12  2  0
 12 13  1  0
 13 14  2  0
 13 15  1  0
 15 16  1  0
 15 17  1  0
 15 18  1  0
  5 19  1  0
 19 20  2  0
 20 21  1  0
 21 22  2  0
 22 23  1  0
 23 24  2  0
 24 25  1  0
 25 26  2  0
 25 27  1  0
 27 28  1  0
 28 29  1  0
 29 30  1  0
 30 31  1  0
 31 32  1  0
 23 33  1  0
 33 34  1  0
 34 35  1  0
 35 36  1  0
 35 37  1  0
 35 38  1  0
 20  2  1  0
 26 21  1  0
 32 27  1  0
 38 33  1  0
 14  9  1  0
  1 39  1  0
  1 40  1  0
  1 41  1  0
  4 42  1  0
  6 43  1  0
 10 44  1  0
 11 45  1  0
 12 46  1  0
 14 47  1  0
 16 48  1  0
 16 49  1  0
 16 50  1  0
 17 51  1  0
 17 52  1  0
 17 53  1  0
 19 54  1  0
 22 55  1  0
 26 56  1  0
 28 57  1  0
 28 58  1  0
 29 59  1  0
 29 60  1  0
 31 61  1  0
 31 62  1  0
 32 63  1  0
 32 64  1  0
 34 65  1  0
 34 66  1  0
 36 67  1  0
 36 68  1  0
 36 69  1  0
 37 70  1  0
 38 71  1  0
 38 72  1  0
M  END
$$$$
[H]c1c([H])c(N([H])C([H])([H])C([H])(N([H])C(=O)O[C@@]2([H])C(=O)C([H])([H])N(S(=O)(=O)C([H])([H])[H])C([H])([H])[C@@]([H])(C([H])([H])[H])C2([H])[H])C([H])(C([H])([H])[H])C([H])([H])[H])c([H])c([H])c1N1C([H])([H])C([H])([H])N(C([H])([H])[H])C([H])([H])C1([H])[H]
     RDKit          3D

 77 79  0  0  0  0  0  0  0  0999 V2000
    1.0623   -4.6755   -2.4222 C   0  0  0  0  0  0  0  0  0  0  0  0
   -0.1611   -3.7529   -2.2208 C   0  0  0  0  0  0  0  0  0  0  0  0
   -1.3338   -4.7224   -2.3201 C   0  0  0  0  0  0  0  0  0  0  0  0
   -0.1228   -3.2747   -0.7513 C   0  0  0  0  0  0  0  0  0  0  0  0
    1.2671   -2.6627   -0.6038 C   0  0  0  0  0  0  0  0  0  0  0  0
    1.5323   -2.1293    0.7081 N   0  0  0  0  0  0  0  0  0  0  0  0
    2.7532   -1.4038    0.8438 C   0  0  0  0  0  0  0  0  0  0  0  0
    3.6118   -1.2165   -0.2238 C   0  0  0  0  0  0  0  0  0  0  0  0
    4.7834   -0.4974   -0.0995 C   0  0  0  0  0  0  0  0  0  0  0  0
    5.1615    0.0721    1.0931 C   0  0  0  0  0  0  0  0  0  0  0  0
    4.3073   -0.1050    2.1908 C   0  0  0  0  0  0  0  0  0  0  0  0
    3.1251   -0.8377    2.0423 C   0  0  0  0  0  0  0  0  0  0  0  0
    6.3460    0.8258    1.2249 N   0  0  0  0  0  0  0  0  0  0  0  0
    6.8423    1.3273    2.4855 C   0  0  0  0  0  0  0  0  0  0  0  0
    6.8347    2.8300    2.4355 C   0  0  0  0  0  0  0  0  0  0  0  0
    7.4029    3.3333    1.2428 N   0  0  0  0  0  0  0  0  0  0  0  0
    8.7244    3.8745    1.3539 C   0  0  0  0  0  0  0  0  0  0  0  0
    7.0879    2.7014    0.0158 C   0  0  0  0  0  0  0  0  0  0  0  0
    7.1715    1.1829    0.0948 C   0  0  0  0  0  0  0  0  0  0  0  0
   -1.0487   -2.2463   -0.4192 N   0  0  0  0  0  0  0  0  0  0  0  0
   -2.3628   -1.9393   -0.6941 C   0  0  0  0  0  0  0  0  0  0  0  0
   -3.1654   -2.5526   -1.4174 O   0  0  0  0  0  0  0  0  0  0  0  0
   -2.9246   -0.7776   -0.0943 O   0  0  0  0  0  0  0  0  0  0  0  0
   -4.2572   -0.3916   -0.3817 C   0  0  2  0  0  0  0  0  0  0  0  0
   -4.2751    1.0122   -0.8805 C   0  0  0  0  0  0  0  0  0  0  0  0
   -5.5050    1.3341   -1.7039 C   0  0  2  0  0  0  0  0  0  0  0  0
   -5.3537    2.7540   -2.2419 C   0  0  0  0  0  0  0  0  0  0  0  0
   -6.7558    1.2408   -0.8702 C   0  0  0  0  0  0  0  0  0  0  0  0
   -6.4001    1.3524    0.5287 N   0  0  0  0  0  0  0  0  0  0  0  0
   -6.4003    0.0911    1.2290 C   0  0  0  0  0  0  0  0  0  0  0  0
   -5.1268   -0.5947    0.8305 C   0  0  0  0  0  0  0  0  0  0  0  0
   -4.7507   -1.4349    1.6095 O   0  0  0  0  0  0  0  0  0  0  0  0
   -7.3018    2.5832    1.3257 S   0  0  0  0  0  0  0  0  0  0  0  0
   -9.0336    2.2603    1.2997 C   0  0  0  0  0  0  0  0  0  0  0  0
   -6.9924    3.8711    0.5962 O   0  0  0  0  0  0  0  0  0  0  0  0
   -6.8323    2.7618    2.7294 O   0  0  0  0  0  0  0  0  0  0  0  0
    0.8516   -5.4602   -3.1860 H   0  0  0  0  0  0  0  0  0  0  0  0
    1.9282   -4.0916   -2.7892 H   0  0  0  0  0  0  0  0  0  0  0  0
    1.3346   -5.1935   -1.5027 H   0  0  0  0  0  0  0  0  0  0  0  0
   -0.1346   -2.9524   -2.9226 H   0  0  0  0  0  0  0  0  0  0  0  0
   -1.7795   -4.9267   -1.3150 H   0  0  0  0  0  0  0  0  0  0  0  0
   -0.8868   -5.7375   -2.5976 H   0  0  0  0  0  0  0  0  0  0  0  0
   -2.0386   -4.4851   -3.1179 H   0  0  0  0  0  0  0  0  0  0  0  0
   -0.2366   -4.1836   -0.1706 H   0  0  0  0  0  0  0  0  0  0  0  0
    2.0656   -3.3866   -0.8466 H   0  0  0  0  0  0  0  0  0  0  0  0
    1.2976   -1.7912   -1.3242 H   0  0  0  0  0  0  0  0  0  0  0  0
    0.9192   -2.2308    1.5401 H   0  0  0  0  0  0  0  0  0  0  0  0
    3.3195   -1.6640   -1.1723 H   0  0  0  0  0  0  0  0  0  0  0  0
    5.3827   -0.4088   -0.9763 H   0  0  0  0  0  0  0  0  0  0  0  0
    4.5238    0.3026    3.1444 H   0  0  0  0  0  0  0  0  0  0  0  0
    2.4799   -0.9578    2.9202 H   0  0  0  0  0  0  0  0  0  0  0  0
    7.9266    0.9981    2.5180 H   0  0  0  0  0  0  0  0  0  0  0  0
    6.3975    0.9076    3.3791 H   0  0  0  0  0  0  0  0  0  0  0  0
    5.7991    3.2147    2.6035 H   0  0  0  0  0  0  0  0  0  0  0  0
    7.5253    3.1638    3.2812 H   0  0  0  0  0  0  0  0  0  0  0  0
    8.8847    4.3228    2.3511 H   0  0  0  0  0  0  0  0  0  0  0  0
    8.8373    4.7049    0.6206 H   0  0  0  0  0  0  0  0  0  0  0  0
    9.4401    3.0642    1.1005 H   0  0  0  0  0  0  0  0  0  0  0  0
    7.8666    2.9999   -0.7297 H   0  0  0  0  0  0  0  0  0  0  0  0
    6.1056    2.9528   -0.4102 H   0  0  0  0  0  0  0  0  0  0  0  0
    8.2361    0.9148    0.3786 H   0  0  0  0  0  0  0  0  0  0  0  0
    6.9218    0.7666   -0.8615 H   0  0  0  0  0  0  0  0  0  0  0  0
   -0.5726   -1.4888    0.2717 H   0  0  0  0  0  0  0  0  0  0  0  0
   -4.6727   -1.0639   -1.1958 H   0  0  0  0  0  0  0  0  0  0  0  0
   -3.3550    1.1818   -1.4771 H   0  0  0  0  0  0  0  0  0  0  0  0
   -4.1987    1.7500   -0.0363 H   0  0  0  0  0  0  0  0  0  0  0  0
   -5.5159    0.6294   -2.5581 H   0  0  0  0  0  0  0  0  0  0  0  0
   -6.3473    3.1655   -2.5343 H   0  0  0  0  0  0  0  0  0  0  0  0
   -4.9851    3.3890   -1.3926 H   0  0  0  0  0  0  0  0  0  0  0  0
   -4.6001    2.8231   -3.0465 H   0  0  0  0  0  0  0  0  0  0  0  0
   -7.2258    0.2382   -1.0836 H   0  0  0  0  0  0  0  0  0  0  0  0
   -7.5165    1.9907   -1.1877 H   0  0  0  0  0  0  0  0  0  0  0  0
   -6.3843    0.2803    2.3069 H   0  0  0  0  0  0  0  0  0  0  0  0
   -7.2856   -0.5462    0.9868 H   0  0  0  0  0  0  0  0  0  0  0  0
   -9.3477    1.8957    2.2876 H   0  0  0  0  0  0  0  0  0  0  0  0
   -9.2730    1.5116    0.5086 H   0  0  0  0  0  0  0  0  0  0  0  0
   -9.5970    3.2072    1.0596 H   0  0  0  0  0  0  0  0  0  0  0  0
  1  2  1  0
  2  3  1  0
  2  4  1  0
  4  5  1  0
  5  6  1  0
  6  7  1  0
  7  8  2  0
  8  9  1  0
  9 10  2  0
 10 11  1  0
 11 12  2  0
 10 13  1  0
 13 14  1  0
 14 15  1  0
 15 16  1  0
 16 17  1  0
 16 18  1  0
 18 19  1  0
  4 20  1  0
 20 21  1  0
 21 22  2  0
 21 23  1  0
 23 24  1  0
 24 25  1  0
 25 26  1  0
 26 27  1  0
 26 28  1  0
 28 29  1  0
 29 30  1  0
 30 31  1  0
 31 32  2  0
 29 33  1  0
 33 34  1  0
 33 35  2  0
 33 36  2  0
 12  7  1  0
 19 13  1  0
 31 24  1  0
  1 37  1  0
  1 38  1  0
  1 39  1  0
  2 40  1  0
  3 41  1  0
  3 42  1  0
  3 43  1  0
  4 44  1  0
  5 45  1  0
  5 46  1  0
  6 47  1  0
  8 48  1  0
  9 49  1  0
 11 50  1  0
 12 51  1  0
 14 52  1  0
 14 53  1  0
 15 54  1  0
 15 55  1  0
 17 56  1  0
 17 57  1  0
 17 58  1  0
 18 59  1  0
 18 60  1  0
 19 61  1  0
 19 62  1  0
 20 63  1  0
 24 64  1  6
 25 65  1  0
 25 66  1  0
 26 67  1  6
 27 68  1  0
 27 69  1  0
 27 70  1  0
 28 71  1  0
 28 72  1  0
 30 73  1  0
 30 74  1  0
 34 75  1  0
 34 76  1  0
 34 77  1  0
M  END
$$$$
[H]c1nc(N([H])[H])c(C(=O)N([H])c2c([H])nc([H])c([H])c2-c2c([H])c([H])c([H])c(S(=O)(=O)N([H])[H])c2[H])nc1-c1nc([H])c([H])c([H])c1OC(F)(F)F
     RDKit          3D

 53 56  0  0  0  0  0  0  0  0999 V2000
   -2.5317    4.3286   -0.4816 N   0  0  0  0  0  0  0  0  0  0  0  0
   -3.8022    3.2725   -0.9624 S   0  0  0  0  0  0  0  0  0  0  0  0
   -4.9701    3.3620   -0.0176 O   0  0  0  0  0  0  0  0  0  0  0  0
   -4.3076    3.6023   -2.3384 O   0  0  0  0  0  0  0  0  0  0  0  0
   -3.2848    1.6036   -0.9774 C   0  0  0  0  0  0  0  0  0  0  0  0
   -2.7488    1.1118   -2.1489 C   0  0  0  0  0  0  0  0  0  0  0  0
   -2.3323   -0.2022   -2.1887 C   0  0  0  0  0  0  0  0  0  0  0  0
   -2.4551   -1.0001   -1.0697 C   0  0  0  0  0  0  0  0  0  0  0  0
   -2.9866   -0.5275    0.1059 C   0  0  0  0  0  0  0  0  0  0  0  0
   -3.4023    0.7841    0.1456 C   0  0  0  0  0  0  0  0  0  0  0  0
   -3.1358   -1.3389    1.3105 C   0  0  0  0  0  0  0  0  0  0  0  0
   -4.3708   -1.5424    1.8683 C   0  0  0  0  0  0  0  0  0  0  0  0
   -4.5675   -2.3257    2.9497 C   0  0  0  0  0  0  0  0  0  0  0  0
   -3.4934   -2.9181    3.4822 N   0  0  0  0  0  0  0  0  0  0  0  0
   -2.2567   -2.7657    2.9938 C   0  0  0  0  0  0  0  0  0  0  0  0
   -2.0278   -1.9705    1.8901 C   0  0  0  0  0  0  0  0  0  0  0  0
   -0.7514   -1.7111    1.3696 N   0  0  0  0  0  0  0  0  0  0  0  0
    0.4257   -2.4033    1.6998 C   0  0  0  0  0  0  0  0  0  0  0  0
    0.4997   -3.3488    2.4967 O   0  0  0  0  0  0  0  0  0  0  0  0
    1.7187   -2.0024    1.0633 C   0  0  0  0  0  0  0  0  0  0  0  0
    1.7265   -0.9901    0.1940 N   0  0  0  0  0  0  0  0  0  0  0  0
    2.8737   -0.5606   -0.4325 C   0  0  0  0  0  0  0  0  0  0  0  0
    3.9847   -1.2613   -0.0839 C   0  0  0  0  0  0  0  0  0  0  0  0
    3.9813   -2.3049    0.8119 N   0  0  0  0  0  0  0  0  0  0  0  0
    2.8488   -2.6966    1.4036 C   0  0  0  0  0  0  0  0  0  0  0  0
    2.8182   -3.7792    2.3384 N   0  0  0  0  0  0  0  0  0  0  0  0
    2.7487    0.4983   -1.4171 C   0  0  0  0  0  0  0  0  0  0  0  0
    1.4618    0.9453   -1.6372 N   0  0  0  0  0  0  0  0  0  0  0  0
    1.1600    1.8686   -2.5456 C   0  0  0  0  0  0  0  0  0  0  0  0
    2.1419    2.4449   -3.3382 C   0  0  0  0  0  0  0  0  0  0  0  0
    3.4223    2.0375   -3.1536 C   0  0  0  0  0  0  0  0  0  0  0  0
    3.6989    1.0666   -2.1853 C   0  0  0  0  0  0  0  0  0  0  0  0
    5.0346    0.7262   -2.0388 O   0  0  0  0  0  0  0  0  0  0  0  0
    5.9282    1.5696   -1.2953 C   0  0  0  0  0  0  0  0  0  0  0  0
    7.1565    0.9303   -1.3044 F   0  0  0  0  0  0  0  0  0  0  0  0
    5.5379    1.8885   -0.0521 F   0  0  0  0  0  0  0  0  0  0  0  0
    6.0546    2.7221   -2.0946 F   0  0  0  0  0  0  0  0  0  0  0  0
   -2.3811    5.0173   -1.2546 H   0  0  0  0  0  0  0  0  0  0  0  0
   -2.8464    4.8296    0.3792 H   0  0  0  0  0  0  0  0  0  0  0  0
   -2.6448    1.7366   -3.0491 H   0  0  0  0  0  0  0  0  0  0  0  0
   -1.9165   -0.5687   -3.1110 H   0  0  0  0  0  0  0  0  0  0  0  0
   -2.1155   -2.0227   -1.1475 H   0  0  0  0  0  0  0  0  0  0  0  0
   -3.8184    1.1870    1.0353 H   0  0  0  0  0  0  0  0  0  0  0  0
   -5.2263   -1.0412    1.4056 H   0  0  0  0  0  0  0  0  0  0  0  0
   -5.5616   -2.4933    3.4034 H   0  0  0  0  0  0  0  0  0  0  0  0
   -1.4542   -3.2822    3.5062 H   0  0  0  0  0  0  0  0  0  0  0  0
   -0.6710   -0.8935    0.6774 H   0  0  0  0  0  0  0  0  0  0  0  0
    4.9180   -1.0095   -0.5509 H   0  0  0  0  0  0  0  0  0  0  0  0
    2.9134   -3.6583    3.3618 H   0  0  0  0  0  0  0  0  0  0  0  0
    2.6937   -4.7343    1.9631 H   0  0  0  0  0  0  0  0  0  0  0  0
    0.1465    2.2098   -2.7076 H   0  0  0  0  0  0  0  0  0  0  0  0
    1.9063    3.1979   -4.0848 H   0  0  0  0  0  0  0  0  0  0  0  0
    4.2601    2.4121   -3.7163 H   0  0  0  0  0  0  0  0  0  0  0  0
  1  2  1  0
  2  3  2  0
  2  4  2  0
  2  5  1  0
  5  6  2  0
  6  7  1  0
  7  8  2  0
  8  9  1  0
  9 10  2  0
  9 11  1  0
 11 12  2  0
 12 13  1  0
 13 14  2  0
 14 15  1  0
 15 16  2  0
 16 17  1  0
 17 18  1  0
 18 19  2  0
 18 20  1  0
 20 21  2  0
 21 22  1  0
 22 23  2  0
 23 24  1  0
 24 25  2  0
 25 26  1  0
 22 27  1  0
 27 28  2  0
 28 29  1  0
 29 30  2  0
 30 31  1  0
 31 32  2  0
 32 33  1  0
 33 34  1  0
 34 35  1  0
 34 36  1  0
 34 37  1  0
 10  5  1  0
 16 11  1  0
 25 20  1  0
 32 27  1  0
  1 38  1  0
  1 39  1  0
  6 40  1  0
  7 41  1  0
  8 42  1  0
 10 43  1  0
 12 44  1  0
 13 45  1  0
 15 46  1  0
 17 47  1  0
 23 48  1  0
 26 49  1  0
 26 50  1  0
 29 51  1  0
 30 52  1  0
 31 53  1  0
M  END
$$$$
[H]c1nc(N([H])c2c([H])c([H])c([H])c(C(=O)c3c([H])c([H])c([H])c([H])c3[H])c2[H])c2nc(C([H])([H])[H])c([H])n2n1
     RDKit          3D

 40 43  0  0  0  0  0  0  0  0999 V2000
   -6.7320    2.0517    0.5082 C   0  0  0  0  0  0  0  0  0  0  0  0
   -5.8546    0.8555    0.2767 C   0  0  0  0  0  0  0  0  0  0  0  0
   -6.2920   -0.4008   -0.0717 C   0  0  0  0  0  0  0  0  0  0  0  0
   -5.2068   -1.2027   -0.1746 N   0  0  0  0  0  0  0  0  0  0  0  0
   -5.0734   -2.4780   -0.4649 N   0  0  0  0  0  0  0  0  0  0  0  0
   -3.8426   -3.0268   -0.4813 C   0  0  0  0  0  0  0  0  0  0  0  0
   -2.7584   -2.2646   -0.2008 N   0  0  0  0  0  0  0  0  0  0  0  0
   -2.8303   -0.9640    0.1007 C   0  0  0  0  0  0  0  0  0  0  0  0
   -1.7311   -0.1145    0.3555 N   0  0  0  0  0  0  0  0  0  0  0  0
   -0.3590   -0.5572    0.4357 C   0  0  0  0  0  0  0  0  0  0  0  0
   -0.0352   -1.8151    0.8797 C   0  0  0  0  0  0  0  0  0  0  0  0
    1.2903   -2.1799    0.9108 C   0  0  0  0  0  0  0  0  0  0  0  0
    2.3240   -1.3113    0.5041 C   0  0  0  0  0  0  0  0  0  0  0  0
    2.0231   -0.0645    0.0602 C   0  0  0  0  0  0  0  0  0  0  0  0
    0.6568    0.2706    0.0443 C   0  0  0  0  0  0  0  0  0  0  0  0
    2.9876    0.9075   -0.4065 C   0  0  0  0  0  0  0  0  0  0  0  0
    2.5003    1.9387   -1.0621 O   0  0  0  0  0  0  0  0  0  0  0  0
    4.4119    0.9671   -0.2852 C   0  0  0  0  0  0  0  0  0  0  0  0
    5.0340    2.2266   -0.1382 C   0  0  0  0  0  0  0  0  0  0  0  0
    6.3770    2.4170   -0.0450 C   0  0  0  0  0  0  0  0  0  0  0  0
    7.2098    1.3050   -0.0964 C   0  0  0  0  0  0  0  0  0  0  0  0
    6.6727    0.0494   -0.2390 C   0  0  0  0  0  0  0  0  0  0  0  0
    5.2806   -0.0892   -0.3319 C   0  0  0  0  0  0  0  0  0  0  0  0
   -4.1287   -0.4239    0.1102 C   0  0  0  0  0  0  0  0  0  0  0  0
   -4.5111    0.8167    0.3835 N   0  0  0  0  0  0  0  0  0  0  0  0
   -7.1884    2.4265   -0.4325 H   0  0  0  0  0  0  0  0  0  0  0  0
   -6.0949    2.8246    0.9689 H   0  0  0  0  0  0  0  0  0  0  0  0
   -7.5557    1.8031    1.2381 H   0  0  0  0  0  0  0  0  0  0  0  0
   -7.3396   -0.6559   -0.2256 H   0  0  0  0  0  0  0  0  0  0  0  0
   -3.6654   -4.0791   -0.7154 H   0  0  0  0  0  0  0  0  0  0  0  0
   -1.8838    0.9081    0.5004 H   0  0  0  0  0  0  0  0  0  0  0  0
   -0.7621   -2.5216    1.2143 H   0  0  0  0  0  0  0  0  0  0  0  0
    1.6136   -3.1726    1.2557 H   0  0  0  0  0  0  0  0  0  0  0  0
    3.3250   -1.6514    0.5797 H   0  0  0  0  0  0  0  0  0  0  0  0
    0.4109    1.2666   -0.3084 H   0  0  0  0  0  0  0  0  0  0  0  0
    4.3758    3.0778   -0.1000 H   0  0  0  0  0  0  0  0  0  0  0  0
    6.7947    3.4216    0.0651 H   0  0  0  0  0  0  0  0  0  0  0  0
    8.2886    1.4058   -0.0236 H   0  0  0  0  0  0  0  0  0  0  0  0
    7.2881   -0.8417   -0.2773 H   0  0  0  0  0  0  0  0  0  0  0  0
    4.9803   -1.1254   -0.4907 H   0  0  0  0  0  0  0  0  0  0  0  0
  1  2  1  0
  2  3  2  0
  3  4  1  0
  4  5  1  0
  5  6  2  0
  6  7  1  0
  7  8  2  0
  8  9  1  0
  9 10  1  0
 10 11  2  0
 11 12  1  0
 12 13  2  0
 13 14  1  0
 14 15  2  0
 14 16  1  0
 16 17  2  0
 16 18  1  0
 18 19  2  0
 19 20  1  0
 20 21  2  0
 21 22  1  0
 22 23  2  0
  8 24  1  0
 24 25  2  0
 25  2  1  0
 24  4  1  0
 15 10  1  0
 23 18  1  0
  1 26  1  0
  1 27  1  0
  1 28  1  0
  3 29  1  0
  6 30  1  0
  9 31  1  0
 11 32  1  0
 12 33  1  0
 13 34  1  0
 15 35  1  0
 19 36  1  0
 20 37  1  0
 21 38  1  0
 22 39  1  0
 23 40  1  0
M  END
$$$$
[H]Oc1c([H])c([H])c2c(c1[H])[C@@]([H])(C([H])([H])[H])O[C@@]([H])(c1c([H])c([H])c(C#N)c([H])c1[H])[C@]([H])(c1c([H])c([H])c(N3C([H])([H])C([H])([H])O[C@]([H])(C([H])([H])[H])C3([H])[H])c([H])c1[H])O2
     RDKit          3D

 62 66  0  0  0  0  0  0  0  0999 V2000
    6.9798    0.2557   -1.2383 C   0  0  0  0  0  0  0  0  0  0  0  0
    6.2110    0.5236    0.0636 C   0  0  2  0  0  0  0  0  0  0  0  0
    4.9086   -0.2428   -0.0770 C   0  0  0  0  0  0  0  0  0  0  0  0
    3.9925    0.3577    0.8846 N   0  0  0  0  0  0  0  0  0  0  0  0
    4.6408    1.1493    1.9079 C   0  0  0  0  0  0  0  0  0  0  0  0
    5.2378    2.3450    1.1475 C   0  0  0  0  0  0  0  0  0  0  0  0
    6.0497    1.8830    0.1483 O   0  0  0  0  0  0  0  0  0  0  0  0
    2.5968    0.1604    0.7908 C   0  0  0  0  0  0  0  0  0  0  0  0
    1.6909    0.7528    1.6419 C   0  0  0  0  0  0  0  0  0  0  0  0
    0.3167    0.5505    1.5337 C   0  0  0  0  0  0  0  0  0  0  0  0
   -0.1191   -0.2660    0.5431 C   0  0  0  0  0  0  0  0  0  0  0  0
    0.7840   -0.8712   -0.3228 C   0  0  0  0  0  0  0  0  0  0  0  0
    2.1396   -0.6805   -0.2275 C   0  0  0  0  0  0  0  0  0  0  0  0
   -1.5717   -0.5897    0.2782 C   0  0  2  0  0  0  0  0  0  0  0  0
   -1.5632   -1.9794    0.1408 O   0  0  0  0  0  0  0  0  0  0  0  0
   -2.6025   -2.7949   -0.1996 C   0  0  0  0  0  0  0  0  0  0  0  0
   -2.3938   -4.0843    0.2482 C   0  0  0  0  0  0  0  0  0  0  0  0
   -3.3354   -5.0350   -0.0051 C   0  0  0  0  0  0  0  0  0  0  0  0
   -4.4846   -4.7097   -0.7024 C   0  0  0  0  0  0  0  0  0  0  0  0
   -5.4659   -5.6499   -0.9792 O   0  0  0  0  0  0  0  0  0  0  0  0
   -4.6677   -3.3982   -1.1430 C   0  0  0  0  0  0  0  0  0  0  0  0
   -3.7248   -2.4236   -0.8950 C   0  0  0  0  0  0  0  0  0  0  0  0
   -4.0715   -1.0899   -1.4397 C   0  0  1  0  0  0  0  0  0  0  0  0
   -5.4335   -0.6604   -0.9019 C   0  0  0  0  0  0  0  0  0  0  0  0
   -3.1586   -0.1734   -1.5502 O   0  0  0  0  0  0  0  0  0  0  0  0
   -2.0792    0.1769   -0.9199 C   0  0  1  0  0  0  0  0  0  0  0  0
   -1.9852    1.6539   -0.5752 C   0  0  0  0  0  0  0  0  0  0  0  0
   -3.0116    2.3186    0.0550 C   0  0  0  0  0  0  0  0  0  0  0  0
   -2.9456    3.6580    0.3641 C   0  0  0  0  0  0  0  0  0  0  0  0
   -1.8119    4.3880    0.0386 C   0  0  0  0  0  0  0  0  0  0  0  0
   -0.7809    3.7569   -0.5854 C   0  0  0  0  0  0  0  0  0  0  0  0
   -0.8805    2.4155   -0.8798 C   0  0  0  0  0  0  0  0  0  0  0  0
   -1.6935    5.7965    0.3422 C   0  0  0  0  0  0  0  0  0  0  0  0
   -1.6072    6.9121    0.5737 N   0  0  0  0  0  0  0  0  0  0  0  0
    6.6506    1.0082   -1.9851 H   0  0  0  0  0  0  0  0  0  0  0  0
    6.7046   -0.7662   -1.6183 H   0  0  0  0  0  0  0  0  0  0  0  0
    8.0503    0.3316   -1.0382 H   0  0  0  0  0  0  0  0  0  0  0  0
    6.8100    0.0757    0.8684 H   0  0  0  0  0  0  0  0  0  0  0  0
    5.1125   -1.2932    0.1757 H   0  0  0  0  0  0  0  0  0  0  0  0
    4.4932   -0.0857   -1.0921 H   0  0  0  0  0  0  0  0  0  0  0  0
    5.4997    0.5763    2.3701 H   0  0  0  0  0  0  0  0  0  0  0  0
    4.0182    1.4537    2.7385 H   0  0  0  0  0  0  0  0  0  0  0  0
    5.6518    3.1014    1.8077 H   0  0  0  0  0  0  0  0  0  0  0  0
    4.3400    2.8112    0.6455 H   0  0  0  0  0  0  0  0  0  0  0  0
    2.0342    1.3973    2.4226 H   0  0  0  0  0  0  0  0  0  0  0  0
   -0.4008    1.0068    2.1891 H   0  0  0  0  0  0  0  0  0  0  0  0
    0.4264   -1.5322   -1.1221 H   0  0  0  0  0  0  0  0  0  0  0  0
    2.7880   -1.1676   -0.9174 H   0  0  0  0  0  0  0  0  0  0  0  0
   -2.1052   -0.3224    1.2098 H   0  0  0  0  0  0  0  0  0  0  0  0
   -1.5005   -4.3423    0.7922 H   0  0  0  0  0  0  0  0  0  0  0  0
   -3.2076   -6.0552    0.3288 H   0  0  0  0  0  0  0  0  0  0  0  0
   -5.4094   -6.6058   -0.6992 H   0  0  0  0  0  0  0  0  0  0  0  0
   -5.5822   -3.1828   -1.6849 H   0  0  0  0  0  0  0  0  0  0  0  0
   -4.3497   -1.3612   -2.5291 H   0  0  0  0  0  0  0  0  0  0  0  0
   -6.2786   -1.2077   -1.3912 H   0  0  0  0  0  0  0  0  0  0  0  0
   -5.6332    0.4036   -1.0481 H   0  0  0  0  0  0  0  0  0  0  0  0
   -5.4781   -0.9743    0.1736 H   0  0  0  0  0  0  0  0  0  0  0  0
   -1.2232    0.0545   -1.6683 H   0  0  0  0  0  0  0  0  0  0  0  0
   -3.9077    1.7901    0.3259 H   0  0  0  0  0  0  0  0  0  0  0  0
   -3.7589    4.1851    0.8645 H   0  0  0  0  0  0  0  0  0  0  0  0
    0.1288    4.3269   -0.8518 H   0  0  0  0  0  0  0  0  0  0  0  0
   -0.0336    1.9690   -1.3792 H   0  0  0  0  0  0  0  0  0  0  0  0
  1  2  1  0
  2  3  1  0
  3  4  1  0
  4  5  1  0
  5  6  1  0
  6  7  1  0
  4  8  1  0
  8  9  2  0
  9 10  1  0
 10 11  2  0
 11 12  1  0
 12 13  2  0
 11 14  1  0
 14 15  1  0
 15 16  1  0
 16 17  2  0
 17 18  1  0
 18 19  2  0
 19 20  1  0
 19 21  1  0
 21 22  2  0
 22 23  1  0
 23 24  1  0
 23 25  1  0
 25 26  1  0
 26 27  1  0
 27 28  2  0
 28 29  1  0
 29 30  2  0
 30 31  1  0
 31 32  2  0
 30 33  1  0
 33 34  3  0
  7  2  1  0
 13  8  1  0
 26 14  1  0
 32 27  1  0
 22 16  1  0
  1 35  1  0
  1 36  1  0
  1 37  1  0
  2 38  1  1
  3 39  1  0
  3 40  1  0
  5 41  1  0
  5 42  1  0
  6 43  1  0
  6 44  1  0
  9 45  1  0
 10 46  1  0
 12 47  1  0
 13 48  1  0
 14 49  1  1
 17 50  1  0
 18 51  1  0
 20 52  1  0
 21 53  1  0
 23 54  1  6
 24 55  1  0
 24 56  1  0
 24 57  1  0
 26 58  1  6
 28 59  1  0
 29 60  1  0
 31 61  1  0
 32 62  1  0
M  END
$$$$
[H]c1noc(N([H])C(=O)c2nc([H])c(N3C([H])([H])C([H])([H])N(S(=O)(=O)c4c([H])c([H])c([H])c(C([H])([H])[H])c4F)C([H])([H])C3([H])[H])c([H])c2Oc2c([H])nc(OC([H])([H])[H])c([H])c2[H])c1[H]
     RDKit          3D

 65 69  0  0  0  0  0  0  0  0999 V2000
   -6.9599    3.9429    1.1539 C   0  0  0  0  0  0  0  0  0  0  0  0
   -6.7749    2.9749    2.1707 O   0  0  0  0  0  0  0  0  0  0  0  0
   -5.8138    1.9940    2.0110 C   0  0  0  0  0  0  0  0  0  0  0  0
   -5.6106    1.0389    2.9815 C   0  0  0  0  0  0  0  0  0  0  0  0
   -4.6723    0.0482    2.8699 C   0  0  0  0  0  0  0  0  0  0  0  0
   -3.8776   -0.0178    1.7372 C   0  0  0  0  0  0  0  0  0  0  0  0
   -2.9117   -1.0019    1.5834 O   0  0  0  0  0  0  0  0  0  0  0  0
   -2.2562   -1.0982    0.3585 C   0  0  0  0  0  0  0  0  0  0  0  0
   -0.8970   -0.7149    0.3189 C   0  0  0  0  0  0  0  0  0  0  0  0
   -0.2295   -0.7926   -0.8646 C   0  0  0  0  0  0  0  0  0  0  0  0
   -0.9024   -1.2414   -1.9796 C   0  0  0  0  0  0  0  0  0  0  0  0
   -2.1877   -1.6013   -1.9211 N   0  0  0  0  0  0  0  0  0  0  0  0
   -2.9044   -1.5423   -0.7454 C   0  0  0  0  0  0  0  0  0  0  0  0
   -4.2684   -2.0858   -0.7742 C   0  0  0  0  0  0  0  0  0  0  0  0
   -4.7872   -2.4545    0.2932 O   0  0  0  0  0  0  0  0  0  0  0  0
   -4.9576   -2.1778   -2.0055 N   0  0  0  0  0  0  0  0  0  0  0  0
   -6.2605   -2.6799   -2.1492 C   0  0  0  0  0  0  0  0  0  0  0  0
   -7.1023   -3.1615   -1.1958 C   0  0  0  0  0  0  0  0  0  0  0  0
   -8.2690   -3.5273   -1.8824 C   0  0  0  0  0  0  0  0  0  0  0  0
   -8.0650   -3.2534   -3.1605 N   0  0  0  0  0  0  0  0  0  0  0  0
   -6.8877   -2.7568   -3.3166 O   0  0  0  0  0  0  0  0  0  0  0  0
    1.1390   -0.4063   -0.8824 N   0  0  0  0  0  0  0  0  0  0  0  0
    1.7933   -0.0008    0.3497 C   0  0  0  0  0  0  0  0  0  0  0  0
    3.2354    0.4534    0.0241 C   0  0  0  0  0  0  0  0  0  0  0  0
    3.9419   -0.5272   -0.6936 N   0  0  0  0  0  0  0  0  0  0  0  0
    3.1818   -1.2577   -1.6905 C   0  0  0  0  0  0  0  0  0  0  0  0
    1.9843   -0.3729   -2.0465 C   0  0  0  0  0  0  0  0  0  0  0  0
    5.4400   -0.1153   -1.3764 S   0  0  0  0  0  0  0  0  0  0  0  0
    5.9092   -1.2798   -2.2392 O   0  0  0  0  0  0  0  0  0  0  0  0
    5.2425    1.0332   -2.3803 O   0  0  0  0  0  0  0  0  0  0  0  0
    6.6800    0.3624   -0.2630 C   0  0  0  0  0  0  0  0  0  0  0  0
    7.7506   -0.5227   -0.0901 C   0  0  0  0  0  0  0  0  0  0  0  0
    8.7869   -0.2895    0.7856 C   0  0  0  0  0  0  0  0  0  0  0  0
    8.7670    0.8717    1.5260 C   0  0  0  0  0  0  0  0  0  0  0  0
    7.7394    1.7717    1.3918 C   0  0  0  0  0  0  0  0  0  0  0  0
    7.7339    3.0134    2.1950 C   0  0  0  0  0  0  0  0  0  0  0  0
    6.6987    1.5049    0.4905 C   0  0  0  0  0  0  0  0  0  0  0  0
    5.7073    2.4124    0.3378 F   0  0  0  0  0  0  0  0  0  0  0  0
   -4.1041    0.9596    0.7729 C   0  0  0  0  0  0  0  0  0  0  0  0
   -5.0358    1.9210    0.9135 N   0  0  0  0  0  0  0  0  0  0  0  0
   -7.3448    3.4879    0.2129 H   0  0  0  0  0  0  0  0  0  0  0  0
   -7.6732    4.7180    1.5445 H   0  0  0  0  0  0  0  0  0  0  0  0
   -6.0374    4.4830    0.8947 H   0  0  0  0  0  0  0  0  0  0  0  0
   -6.2500    1.1121    3.8667 H   0  0  0  0  0  0  0  0  0  0  0  0
   -4.5500   -0.6677    3.6434 H   0  0  0  0  0  0  0  0  0  0  0  0
   -0.4414   -0.3740    1.2356 H   0  0  0  0  0  0  0  0  0  0  0  0
   -0.3310   -1.2862   -2.9031 H   0  0  0  0  0  0  0  0  0  0  0  0
   -4.4129   -1.8311   -2.8563 H   0  0  0  0  0  0  0  0  0  0  0  0
   -6.9639   -3.2670   -0.1230 H   0  0  0  0  0  0  0  0  0  0  0  0
   -9.1334   -3.9511   -1.3744 H   0  0  0  0  0  0  0  0  0  0  0  0
    1.8817   -0.8344    1.0761 H   0  0  0  0  0  0  0  0  0  0  0  0
    1.3039    0.8982    0.7791 H   0  0  0  0  0  0  0  0  0  0  0  0
    3.6977    0.5300    1.0525 H   0  0  0  0  0  0  0  0  0  0  0  0
    3.1492    1.4383   -0.4396 H   0  0  0  0  0  0  0  0  0  0  0  0
    2.7643   -2.1659   -1.1775 H   0  0  0  0  0  0  0  0  0  0  0  0
    3.7740   -1.5175   -2.5776 H   0  0  0  0  0  0  0  0  0  0  0  0
    2.3431    0.6938   -2.1535 H   0  0  0  0  0  0  0  0  0  0  0  0
    1.5399   -0.6289   -2.9925 H   0  0  0  0  0  0  0  0  0  0  0  0
    7.7599   -1.4282   -0.6719 H   0  0  0  0  0  0  0  0  0  0  0  0
    9.6085   -0.9794    0.9114 H   0  0  0  0  0  0  0  0  0  0  0  0
    9.5805    1.0875    2.2357 H   0  0  0  0  0  0  0  0  0  0  0  0
    7.2115    2.9061    3.1534 H   0  0  0  0  0  0  0  0  0  0  0  0
    8.7726    3.3614    2.4307 H   0  0  0  0  0  0  0  0  0  0  0  0
    7.2655    3.8263    1.5996 H   0  0  0  0  0  0  0  0  0  0  0  0
   -3.5098    0.9656   -0.1410 H   0  0  0  0  0  0  0  0  0  0  0  0
  1  2  1  0
  2  3  1  0
  3  4  2  0
  4  5  1  0
  5  6  2  0
  6  7  1  0
  7  8  1  0
  8  9  2  0
  9 10  1  0
 10 11  2  0
 11 12  1  0
 12 13  2  0
 13 14  1  0
 14 15  2  0
 14 16  1  0
 16 17  1  0
 17 18  2  0
 18 19  1  0
 19 20  2  0
 20 21  1  0
 10 22  1  0
 22 23  1  0
 23 24  1  0
 24 25  1  0
 25 26  1  0
 26 27  1  0
 25 28  1  0
 28 29  2  0
 28 30  2  0
 28 31  1  0
 31 32  2  0
 32 33  1  0
 33 34  2  0
 34 35  1  0
 35 36  1  0
 35 37  2  0
 37 38  1  0
  6 39  1  0
 39 40  2  0
 40  3  1  0
 13  8  1  0
 21 17  1  0
 27 22  1  0
 37 31  1  0
  1 41  1  0
  1 42  1  0
  1 43  1  0
  4 44  1  0
  5 45  1  0
  9 46  1  0
 11 47  1  0
 16 48  1  0
 18 49  1  0
 19 50  1  0
 23 51  1  0
 23 52  1  0
 24 53  1  0
 24 54  1  0
 26 55  1  0
 26 56  1  0
 27 57  1  0
 27 58  1  0
 32 59  1  0
 33 60  1  0
 34 61  1  0
 36 62  1  0
 36 63  1  0
 36 64  1  0
 39 65  1  0
M  END
$$$$
[H]c1nc(OC([H])([H])[H])nc2oc(=O)c(C(=O)N([H])[H])c([H])c12
     RDKit          3D

 23 24  0  0  0  0  0  0  0  0999 V2000
    4.9424    0.6209   -0.1388 C   0  0  0  0  0  0  0  0  0  0  0  0
    3.7789    1.2722   -0.5843 O   0  0  0  0  0  0  0  0  0  0  0  0
    2.5035    0.7196   -0.3676 C   0  0  0  0  0  0  0  0  0  0  0  0
    2.4394   -0.4601    0.2846 N   0  0  0  0  0  0  0  0  0  0  0  0
    1.2400   -1.0251    0.5137 C   0  0  0  0  0  0  0  0  0  0  0  0
    0.0910   -0.3808    0.0731 C   0  0  0  0  0  0  0  0  0  0  0  0
   -1.1654   -0.9100    0.2781 C   0  0  0  0  0  0  0  0  0  0  0  0
   -2.3110   -0.2757   -0.1566 C   0  0  0  0  0  0  0  0  0  0  0  0
   -3.6071   -0.8582    0.0752 C   0  0  0  0  0  0  0  0  0  0  0  0
   -4.7894   -0.2378   -0.3546 N   0  0  0  0  0  0  0  0  0  0  0  0
   -3.6844   -1.9550    0.6805 O   0  0  0  0  0  0  0  0  0  0  0  0
   -2.1422    0.9386   -0.8207 C   0  0  0  0  0  0  0  0  0  0  0  0
   -3.1748    1.5241   -1.2202 O   0  0  0  0  0  0  0  0  0  0  0  0
   -0.9310    1.4102   -0.9968 O   0  0  0  0  0  0  0  0  0  0  0  0
    0.1591    0.8259   -0.5939 C   0  0  0  0  0  0  0  0  0  0  0  0
    1.3938    1.3424   -0.7934 N   0  0  0  0  0  0  0  0  0  0  0  0
    4.7322    0.0159    0.7913 H   0  0  0  0  0  0  0  0  0  0  0  0
    5.3710   -0.0764   -0.8663 H   0  0  0  0  0  0  0  0  0  0  0  0
    5.7287    1.3544    0.1879 H   0  0  0  0  0  0  0  0  0  0  0  0
    1.1459   -1.9779    1.0374 H   0  0  0  0  0  0  0  0  0  0  0  0
   -1.2203   -1.8525    0.7989 H   0  0  0  0  0  0  0  0  0  0  0  0
   -5.3689    0.4150    0.2263 H   0  0  0  0  0  0  0  0  0  0  0  0
   -5.1317   -0.4298   -1.3225 H   0  0  0  0  0  0  0  0  0  0  0  0
  1  2  1  0
  2  3  1  0
  3  4  2  0
  4  5  1  0
  5  6  2  0
  6  7  1  0
  7  8  2  0
  8  9  1  0
  9 10  1  0
  9 11  2  0
  8 12  1  0
 12 13  2  0
 12 14  1  0
 14 15  1  0
 15 16  2  0
 16  3  1  0
 15  6  1  0
  1 17  1  0
  1 18  1  0
  1 19  1  0
  5 20  1  0
  7 21  1  0
 10 22  1  0
 10 23  1  0
M  END
$$$$
[H]c1c(C(=O)[C@@]([H])(N([H])C(=O)[C@@]([H])(N([H])C(=O)[C@]2([H])OC(=O)[C@@]2([H])[C@@]([H])(C([H])([H])[H])C([H])([H])C([H])([H])[H])C([H])([H])C([H])([H])C([H])(C([H])([H])[H])C([H])([H])[H])C([H])(C([H])([H])[H])C([H])([H])[H])nnn1C([H])([H])[H]
     RDKit          3D

 70 71  0  0  0  0  0  0  0  0999 V2000
   -7.8057    2.3373   -2.1114 C   0  0  0  0  0  0  0  0  0  0  0  0
   -6.3092    2.1748   -1.8894 C   0  0  0  0  0  0  0  0  0  0  0  0
   -5.9639    0.7165   -1.6238 C   0  0  2  0  0  0  0  0  0  0  0  0
   -6.7402    0.3171   -0.3702 C   0  0  0  0  0  0  0  0  0  0  0  0
   -4.4975    0.6201   -1.2787 C   0  0  1  0  0  0  0  0  0  0  0  0
   -3.9919   -0.7551   -0.9867 C   0  0  1  0  0  0  0  0  0  0  0  0
   -3.7719   -0.8761   -2.3804 O   0  0  0  0  0  0  0  0  0  0  0  0
   -3.5706    0.4866   -2.4177 C   0  0  0  0  0  0  0  0  0  0  0  0
   -2.8855    1.2393   -3.1310 O   0  0  0  0  0  0  0  0  0  0  0  0
   -2.8036   -0.8847   -0.1477 C   0  0  0  0  0  0  0  0  0  0  0  0
   -2.9709   -0.7621    1.1118 O   0  0  0  0  0  0  0  0  0  0  0  0
   -1.5029   -1.1311   -0.6056 N   0  0  0  0  0  0  0  0  0  0  0  0
   -0.3525   -1.2465    0.3397 C   0  0  1  0  0  0  0  0  0  0  0  0
    0.0924   -2.6495    0.2145 C   0  0  0  0  0  0  0  0  0  0  0  0
    1.2101   -3.1261    1.0512 C   0  0  0  0  0  0  0  0  0  0  0  0
    0.9504   -3.0443    2.5398 C   0  0  0  0  0  0  0  0  0  0  0  0
   -0.2509   -3.8794    2.9266 C   0  0  0  0  0  0  0  0  0  0  0  0
    2.1650   -3.6958    3.2134 C   0  0  0  0  0  0  0  0  0  0  0  0
    0.5687   -0.1989   -0.1016 C   0  0  0  0  0  0  0  0  0  0  0  0
    0.3443    0.5478   -1.1052 O   0  0  0  0  0  0  0  0  0  0  0  0
    1.7760    0.0468    0.5764 N   0  0  0  0  0  0  0  0  0  0  0  0
    2.7006    1.1345    0.1101 C   0  0  1  0  0  0  0  0  0  0  0  0
    2.7027    2.0569    1.2953 C   0  0  0  0  0  0  0  0  0  0  0  0
    3.5034    3.2863    1.2312 C   0  0  0  0  0  0  0  0  0  0  0  0
    1.2380    2.4678    1.5193 C   0  0  0  0  0  0  0  0  0  0  0  0
    3.9629    0.4557   -0.1778 C   0  0  0  0  0  0  0  0  0  0  0  0
    4.1616   -0.7692    0.1393 O   0  0  0  0  0  0  0  0  0  0  0  0
    5.1286    1.0791   -0.8542 C   0  0  0  0  0  0  0  0  0  0  0  0
    6.3264    0.4711   -1.1235 C   0  0  0  0  0  0  0  0  0  0  0  0
    7.1097    1.3636   -1.7372 N   0  0  0  0  0  0  0  0  0  0  0  0
    8.4889    1.1473   -2.2101 C   0  0  0  0  0  0  0  0  0  0  0  0
    6.4105    2.4712   -1.8354 N   0  0  0  0  0  0  0  0  0  0  0  0
    5.2199    2.3289   -1.3144 N   0  0  0  0  0  0  0  0  0  0  0  0
   -8.1062    3.3631   -1.8834 H   0  0  0  0  0  0  0  0  0  0  0  0
   -8.0424    2.1412   -3.1853 H   0  0  0  0  0  0  0  0  0  0  0  0
   -8.3659    1.5835   -1.4956 H   0  0  0  0  0  0  0  0  0  0  0  0
   -5.9823    2.8092   -1.0413 H   0  0  0  0  0  0  0  0  0  0  0  0
   -5.8176    2.5697   -2.7923 H   0  0  0  0  0  0  0  0  0  0  0  0
   -6.2234    0.0893   -2.4838 H   0  0  0  0  0  0  0  0  0  0  0  0
   -7.7010   -0.1909   -0.6297 H   0  0  0  0  0  0  0  0  0  0  0  0
   -7.0434    1.2287    0.2093 H   0  0  0  0  0  0  0  0  0  0  0  0
   -6.1410   -0.2920    0.3185 H   0  0  0  0  0  0  0  0  0  0  0  0
   -4.2044    1.3690   -0.5254 H   0  0  0  0  0  0  0  0  0  0  0  0
   -4.8329   -1.4530   -0.7255 H   0  0  0  0  0  0  0  0  0  0  0  0
   -1.3298   -1.2374   -1.6263 H   0  0  0  0  0  0  0  0  0  0  0  0
   -0.7743   -1.0742    1.3295 H   0  0  0  0  0  0  0  0  0  0  0  0
   -0.8053   -3.2870    0.4748 H   0  0  0  0  0  0  0  0  0  0  0  0
    0.3204   -2.9549   -0.8398 H   0  0  0  0  0  0  0  0  0  0  0  0
    2.2171   -2.7535    0.7918 H   0  0  0  0  0  0  0  0  0  0  0  0
    1.2917   -4.2420    0.8547 H   0  0  0  0  0  0  0  0  0  0  0  0
    0.8294   -2.0217    2.9070 H   0  0  0  0  0  0  0  0  0  0  0  0
   -1.0804   -3.1912    3.2218 H   0  0  0  0  0  0  0  0  0  0  0  0
   -0.0496   -4.4919    3.8365 H   0  0  0  0  0  0  0  0  0  0  0  0
   -0.6443   -4.4930    2.1043 H   0  0  0  0  0  0  0  0  0  0  0  0
    1.9956   -3.8873    4.2814 H   0  0  0  0  0  0  0  0  0  0  0  0
    3.0175   -2.9994    3.0374 H   0  0  0  0  0  0  0  0  0  0  0  0
    2.4341   -4.6360    2.6506 H   0  0  0  0  0  0  0  0  0  0  0  0
    2.1522   -0.4400    1.4089 H   0  0  0  0  0  0  0  0  0  0  0  0
    2.2926    1.5915   -0.7891 H   0  0  0  0  0  0  0  0  0  0  0  0
    2.9904    1.4906    2.2076 H   0  0  0  0  0  0  0  0  0  0  0  0
    3.1284    3.9498    2.0860 H   0  0  0  0  0  0  0  0  0  0  0  0
    3.3190    3.9276    0.3467 H   0  0  0  0  0  0  0  0  0  0  0  0
    4.5718    3.1542    1.4941 H   0  0  0  0  0  0  0  0  0  0  0  0
    1.2730    3.2525    2.3047 H   0  0  0  0  0  0  0  0  0  0  0  0
    0.8739    2.9488    0.5943 H   0  0  0  0  0  0  0  0  0  0  0  0
    0.6398    1.6243    1.8690 H   0  0  0  0  0  0  0  0  0  0  0  0
    6.6130   -0.5715   -0.8832 H   0  0  0  0  0  0  0  0  0  0  0  0
    8.7294    0.0821   -2.2137 H   0  0  0  0  0  0  0  0  0  0  0  0
    8.6043    1.6730   -3.1579 H   0  0  0  0  0  0  0  0  0  0  0  0
    9.2077    1.6388   -1.4931 H   0  0  0  0  0  0  0  0  0  0  0  0
  1  2  1  0
  2  3  1  0
  3  4  1  0
  3  5  1  0
  5  6  1  0
  6  7  1  0
  7  8  1  0
  8  9  2  0
  6 10  1  0
 10 11  2  0
 10 12  1  0
 12 13  1  0
 13 14  1  0
 14 15  1  0
 15 16  1  0
 16 17  1  0
 16 18  1  0
 13 19  1  0
 19 20  2  0
 19 21  1  0
 21 22  1  0
 22 23  1  0
 23 24  1  0
 23 25  1  0
 22 26  1  0
 26 27  2  0
 26 28  1  0
 28 29  2  0
 29 30  1  0
 30 31  1  0
 30 32  1  0
 32 33  2  0
  8  5  1  0
 33 28  1  0
  1 34  1  0
  1 35  1  0
  1 36  1  0
  2 37  1  0
  2 38  1  0
  3 39  1  6
  4 40  1  0
  4 41  1  0
  4 42  1  0
  5 43  1  1
  6 44  1  1
 12 45  1  0
 13 46  1  1
 14 47  1  0
 14 48  1  0
 15 49  1  0
 15 50  1  0
 16 51  1  0
 17 52  1  0
 17 53  1  0
 17 54  1  0
 18 55  1  0
 18 56  1  0
 18 57  1  0
 21 58  1  0
 22 59  1  6
 23 60  1  0
 24 61  1  0
 24 62  1  0
 24 63  1  0
 25 64  1  0
 25 65  1  0
 25 66  1  0
 29 67  1  0
 31 68  1  0
 31 69  1  0
 31 70  1  0
M  END
$$$$
[H]OC(=O)[C@]([H])(N([H])[H])C([H])([H])C(=O)C([H])(c1c([H])c([H])c([H])c([H])c1[H])c1c([H])c([H])c([H])c([H])c1[H].[K+].[K+]
     RDKit          3D

 40 39  0  0  0  0  0  0  0  0999 V2000
    0.0000    0.0000    0.0000 K   0  0  0  0  0 15  0  0  0  0  0  0
    0.0000    0.0000    0.0000 K   0  0  0  0  0 15  0  0  0  0  0  0
    3.7381   -0.7695    1.3362 N   0  0  0  0  0  0  0  0  0  0  0  0
    3.3950    0.3607    0.4939 C   0  0  2  0  0  0  0  0  0  0  0  0
    2.0017    0.8234    0.7676 C   0  0  0  0  0  0  0  0  0  0  0  0
    0.9957   -0.2313    0.5158 C   0  0  0  0  0  0  0  0  0  0  0  0
    1.4165   -1.3096    0.1295 O   0  0  0  0  0  0  0  0  0  0  0  0
   -0.4524   -0.0956    0.6885 C   0  0  0  0  0  0  0  0  0  0  0  0
   -1.1637   -1.3432    0.3168 C   0  0  0  0  0  0  0  0  0  0  0  0
   -2.0705   -1.9523    1.1980 C   0  0  0  0  0  0  0  0  0  0  0  0
   -2.7390   -3.1062    0.8598 C   0  0  0  0  0  0  0  0  0  0  0  0
   -2.5221   -3.6889   -0.3713 C   0  0  0  0  0  0  0  0  0  0  0  0
   -1.6265   -3.0839   -1.2369 C   0  0  0  0  0  0  0  0  0  0  0  0
   -0.9562   -1.9297   -0.9020 C   0  0  0  0  0  0  0  0  0  0  0  0
   -1.0622    1.1153    0.1607 C   0  0  0  0  0  0  0  0  0  0  0  0
   -0.7351    1.7017   -1.0519 C   0  0  0  0  0  0  0  0  0  0  0  0
   -1.3376    2.8500   -1.5183 C   0  0  0  0  0  0  0  0  0  0  0  0
   -2.3052    3.4576   -0.7689 C   0  0  0  0  0  0  0  0  0  0  0  0
   -2.6705    2.9122    0.4525 C   0  0  0  0  0  0  0  0  0  0  0  0
   -2.0475    1.7788    0.8695 C   0  0  0  0  0  0  0  0  0  0  0  0
    3.6351    0.0630   -0.9433 C   0  0  0  0  0  0  0  0  0  0  0  0
    3.3780    0.9983   -1.9363 O   0  0  0  0  0  0  0  0  0  0  0  0
    4.0837   -1.0487   -1.3471 O   0  0  0  0  0  0  0  0  0  0  0  0
    3.2377   -0.6254    2.2405 H   0  0  0  0  0  0  0  0  0  0  0  0
    4.7480   -0.7772    1.5272 H   0  0  0  0  0  0  0  0  0  0  0  0
    4.1129    1.1709    0.7618 H   0  0  0  0  0  0  0  0  0  0  0  0
    1.7841    1.6609    0.0455 H   0  0  0  0  0  0  0  0  0  0  0  0
    1.9648    1.1789    1.8184 H   0  0  0  0  0  0  0  0  0  0  0  0
   -0.5708   -0.0371    1.8200 H   0  0  0  0  0  0  0  0  0  0  0  0
   -2.2573   -1.5037    2.1836 H   0  0  0  0  0  0  0  0  0  0  0  0
   -3.4418   -3.5867    1.5307 H   0  0  0  0  0  0  0  0  0  0  0  0
   -3.0266   -4.5946   -0.6752 H   0  0  0  0  0  0  0  0  0  0  0  0
   -1.4436   -3.5343   -2.2177 H   0  0  0  0  0  0  0  0  0  0  0  0
   -0.2782   -1.5071   -1.6160 H   0  0  0  0  0  0  0  0  0  0  0  0
    0.0177    1.2483   -1.6583 H   0  0  0  0  0  0  0  0  0  0  0  0
   -1.0609    3.2946   -2.4818 H   0  0  0  0  0  0  0  0  0  0  0  0
   -2.8255    4.3628   -1.0669 H   0  0  0  0  0  0  0  0  0  0  0  0
   -3.4455    3.3960    1.0562 H   0  0  0  0  0  0  0  0  0  0  0  0
   -2.3415    1.3498    1.8405 H   0  0  0  0  0  0  0  0  0  0  0  0
    3.8712    1.0020   -2.8211 H   0  0  0  0  0  0  0  0  0  0  0  0
  3  4  1  0
  4  5  1  0
  5  6  1  0
  6  7  2  0
  6  8  1  0
  8  9  1  0
  9 10  2  0
 10 11  1  0
 11 12  2  0
 12 13  1  0
 13 14  2  0
  8 15  1  0
 15 16  2  0
 16 17  1  0
 17 18  2  0
 18 19  1  0
 19 20  2  0
  4 21  1  0
 21 22  1  0
 21 23  2  0
 14  9  1  0
 20 15  1  0
  3 24  1  0
  3 25  1  0
  4 26  1  1
  5 27  1  0
  5 28  1  0
  8 29  1  0
 10 30  1  0
 11 31  1  0
 12 32  1  0
 13 33  1  0
 14 34  1  0
 16 35  1  0
 17 36  1  0
 18 37  1  0
 19 38  1  0
 20 39  1  0
 22 40  1  0
M  CHG  2   1   1   2   1
M  END
$$$$
[H]C1=C(c2c([H])c([H])c(Cl)c(Cl)c2[H])C([H])([H])C([H])([H])N(C(=O)n2c([H])nc([H])c2[H])C1([H])[H]
     RDKit          3D

 34 36  0  0  0  0  0  0  0  0999 V2000
   -7.2541    0.3535   -0.5260 Cl  0  0  0  0  0  0  0  0  0  0  0  0
   -5.5137    0.2969   -0.3678 C   0  0  0  0  0  0  0  0  0  0  0  0
   -4.7368    0.7702   -1.4010 C   0  0  0  0  0  0  0  0  0  0  0  0
   -3.3370    0.7502   -1.3301 C   0  0  0  0  0  0  0  0  0  0  0  0
   -2.7176    0.2495   -0.2106 C   0  0  0  0  0  0  0  0  0  0  0  0
   -3.5196   -0.2232    0.8210 C   0  0  0  0  0  0  0  0  0  0  0  0
   -4.8814   -0.1974    0.7386 C   0  0  0  0  0  0  0  0  0  0  0  0
   -5.8947   -0.7963    2.0458 Cl  0  0  0  0  0  0  0  0  0  0  0  0
   -1.2716    0.2089   -0.1223 C   0  0  0  0  0  0  0  0  0  0  0  0
   -0.5859   -0.2110    0.9410 C   0  0  0  0  0  0  0  0  0  0  0  0
    0.9196   -0.2317    0.9847 C   0  0  0  0  0  0  0  0  0  0  0  0
    1.5078   -0.3564   -0.3040 N   0  0  0  0  0  0  0  0  0  0  0  0
    0.5707   -0.5186   -1.4480 C   0  0  0  0  0  0  0  0  0  0  0  0
   -0.4439    0.6233   -1.2738 C   0  0  0  0  0  0  0  0  0  0  0  0
    2.8783   -0.3446   -0.5592 C   0  0  0  0  0  0  0  0  0  0  0  0
    3.2025   -0.4648   -1.8143 O   0  0  0  0  0  0  0  0  0  0  0  0
    3.9629   -0.2246    0.3188 N   0  0  0  0  0  0  0  0  0  0  0  0
    5.2918   -0.2208   -0.0436 C   0  0  0  0  0  0  0  0  0  0  0  0
    6.0626   -0.0925    1.0696 C   0  0  0  0  0  0  0  0  0  0  0  0
    5.2560   -0.0154    2.1245 N   0  0  0  0  0  0  0  0  0  0  0  0
    3.9809   -0.0981    1.6425 C   0  0  0  0  0  0  0  0  0  0  0  0
   -5.1888    1.1760   -2.3079 H   0  0  0  0  0  0  0  0  0  0  0  0
   -2.7782    1.1448   -2.1742 H   0  0  0  0  0  0  0  0  0  0  0  0
   -3.0454   -0.6228    1.7119 H   0  0  0  0  0  0  0  0  0  0  0  0
   -1.1235   -0.5432    1.7956 H   0  0  0  0  0  0  0  0  0  0  0  0
    1.1898    0.7322    1.4925 H   0  0  0  0  0  0  0  0  0  0  0  0
    1.1860   -1.0576    1.6636 H   0  0  0  0  0  0  0  0  0  0  0  0
   -0.0141   -1.4539   -1.3400 H   0  0  0  0  0  0  0  0  0  0  0  0
    1.0947   -0.4653   -2.3987 H   0  0  0  0  0  0  0  0  0  0  0  0
   -0.9636    0.7528   -2.2072 H   0  0  0  0  0  0  0  0  0  0  0  0
    0.1496    1.5005   -0.9458 H   0  0  0  0  0  0  0  0  0  0  0  0
    5.6952   -0.3043   -1.0429 H   0  0  0  0  0  0  0  0  0  0  0  0
    7.1530   -0.0606    1.0746 H   0  0  0  0  0  0  0  0  0  0  0  0
    3.1685   -0.0558    2.3580 H   0  0  0  0  0  0  0  0  0  0  0  0
  1  2  1  0
  2  3  2  0
  3  4  1  0
  4  5  2  0
  5  6  1  0
  6  7  2  0
  7  8  1  0
  5  9  1  0
  9 10  2  0
 10 11  1  0
 11 12  1  0
 12 13  1  0
 13 14  1  0
 12 15  1  0
 15 16  2  0
 15 17  1  0
 17 18  1  0
 18 19  2  0
 19 20  1  0
 20 21  2  0
  7  2  1  0
 14  9  1  0
 21 17  1  0
  3 22  1  0
  4 23  1  0
  6 24  1  0
 10 25  1  0
 11 26  1  0
 11 27  1  0
 13 28  1  0
 13 29  1  0
 14 30  1  0
 14 31  1  0
 18 32  1  0
 19 33  1  0
 21 34  1  0
M  END
$$$$
[H]c1c([H])c(C([H])([H])[H])c(C(F)(F)F)c([H])c1C(=O)N([H])c1c([H])c([H])c2c(c1[H])O[C@]([H])(C([H])([H])N(C([H])([H])[H])C([H])([H])[H])C([H])([H])C(=O)N2[H]
     RDKit          3D

 52 54  0  0  0  0  0  0  0  0999 V2000
   -6.3836    1.6975   -0.0011 C   0  0  0  0  0  0  0  0  0  0  0  0
   -6.2757    0.8399    1.1765 N   0  0  0  0  0  0  0  0  0  0  0  0
   -6.9354    1.4962    2.2937 C   0  0  0  0  0  0  0  0  0  0  0  0
   -4.8841    0.6600    1.5484 C   0  0  0  0  0  0  0  0  0  0  0  0
   -4.1938   -0.1598    0.4835 C   0  0  2  0  0  0  0  0  0  0  0  0
   -4.8538   -1.4751    0.2268 C   0  0  0  0  0  0  0  0  0  0  0  0
   -4.5723   -1.9447   -1.1685 C   0  0  0  0  0  0  0  0  0  0  0  0
   -5.4802   -2.5565   -1.7902 O   0  0  0  0  0  0  0  0  0  0  0  0
   -3.3562   -1.7780   -1.9069 N   0  0  0  0  0  0  0  0  0  0  0  0
   -2.0807   -1.4339   -1.3466 C   0  0  0  0  0  0  0  0  0  0  0  0
   -1.0237   -1.7970   -2.1408 C   0  0  0  0  0  0  0  0  0  0  0  0
    0.2560   -1.5241   -1.7091 C   0  0  0  0  0  0  0  0  0  0  0  0
    0.5391   -0.9036   -0.5198 C   0  0  0  0  0  0  0  0  0  0  0  0
    1.8213   -0.5746   -0.0310 N   0  0  0  0  0  0  0  0  0  0  0  0
    2.9792   -0.4438   -0.7748 C   0  0  0  0  0  0  0  0  0  0  0  0
    2.9728   -0.6112   -2.0307 O   0  0  0  0  0  0  0  0  0  0  0  0
    4.2825   -0.1059   -0.1738 C   0  0  0  0  0  0  0  0  0  0  0  0
    4.4720   -0.0665    1.1760 C   0  0  0  0  0  0  0  0  0  0  0  0
    5.7207    0.2639    1.6975 C   0  0  0  0  0  0  0  0  0  0  0  0
    6.7885    0.5573    0.8765 C   0  0  0  0  0  0  0  0  0  0  0  0
    8.0901    0.9015    1.4837 C   0  0  0  0  0  0  0  0  0  0  0  0
    6.6070    0.5203   -0.4824 C   0  0  0  0  0  0  0  0  0  0  0  0
    5.3559    0.1890   -0.9760 C   0  0  0  0  0  0  0  0  0  0  0  0
    7.7158    0.8266   -1.4204 C   0  0  0  0  0  0  0  0  0  0  0  0
    8.7887   -0.0097   -1.2889 F   0  0  0  0  0  0  0  0  0  0  0  0
    7.2557    0.6743   -2.7325 F   0  0  0  0  0  0  0  0  0  0  0  0
    8.0771    2.1750   -1.3265 F   0  0  0  0  0  0  0  0  0  0  0  0
   -0.5825   -0.5464    0.2680 C   0  0  0  0  0  0  0  0  0  0  0  0
   -1.8574   -0.8015   -0.1285 C   0  0  0  0  0  0  0  0  0  0  0  0
   -2.8301   -0.3717    0.7890 O   0  0  0  0  0  0  0  0  0  0  0  0
   -5.4327    2.2419   -0.2013 H   0  0  0  0  0  0  0  0  0  0  0  0
   -7.1968    2.4531    0.1287 H   0  0  0  0  0  0  0  0  0  0  0  0
   -6.6664    1.0999   -0.8977 H   0  0  0  0  0  0  0  0  0  0  0  0
   -8.0336    1.4154    2.2410 H   0  0  0  0  0  0  0  0  0  0  0  0
   -6.6524    2.5668    2.2985 H   0  0  0  0  0  0  0  0  0  0  0  0
   -6.5507    1.0396    3.2383 H   0  0  0  0  0  0  0  0  0  0  0  0
   -4.7425    0.2960    2.5640 H   0  0  0  0  0  0  0  0  0  0  0  0
   -4.4334    1.6936    1.5057 H   0  0  0  0  0  0  0  0  0  0  0  0
   -4.2661    0.4258   -0.4730 H   0  0  0  0  0  0  0  0  0  0  0  0
   -4.4831   -2.1985    0.9856 H   0  0  0  0  0  0  0  0  0  0  0  0
   -5.9621   -1.4397    0.3674 H   0  0  0  0  0  0  0  0  0  0  0  0
   -3.3593   -1.9109   -2.9359 H   0  0  0  0  0  0  0  0  0  0  0  0
   -1.2316   -2.2856   -3.0804 H   0  0  0  0  0  0  0  0  0  0  0  0
    1.0986   -1.8398   -2.3536 H   0  0  0  0  0  0  0  0  0  0  0  0
    1.8989   -0.4123    1.0191 H   0  0  0  0  0  0  0  0  0  0  0  0
    3.7054   -0.2793    1.8780 H   0  0  0  0  0  0  0  0  0  0  0  0
    5.8433    0.2871    2.7901 H   0  0  0  0  0  0  0  0  0  0  0  0
    8.0327    0.7995    2.5960 H   0  0  0  0  0  0  0  0  0  0  0  0
    8.2778    1.9863    1.3102 H   0  0  0  0  0  0  0  0  0  0  0  0
    8.9177    0.2488    1.1738 H   0  0  0  0  0  0  0  0  0  0  0  0
    5.2291    0.1642   -2.0676 H   0  0  0  0  0  0  0  0  0  0  0  0
   -0.4059   -0.0496    1.2248 H   0  0  0  0  0  0  0  0  0  0  0  0
  1  2  1  0
  2  3  1  0
  2  4  1  0
  4  5  1  0
  5  6  1  0
  6  7  1  0
  7  8  2  0
  7  9  1  0
  9 10  1  0
 10 11  2  0
 11 12  1  0
 12 13  2  0
 13 14  1  0
 14 15  1  0
 15 16  2  0
 15 17  1  0
 17 18  2  0
 18 19  1  0
 19 20  2  0
 20 21  1  0
 20 22  1  0
 22 23  2  0
 22 24  1  0
 24 25  1  0
 24 26  1  0
 24 27  1  0
 13 28  1  0
 28 29  2  0
 29 30  1  0
 30  5  1  0
 29 10  1  0
 23 17  1  0
  1 31  1  0
  1 32  1  0
  1 33  1  0
  3 34  1  0
  3 35  1  0
  3 36  1  0
  4 37  1  0
  4 38  1  0
  5 39  1  6
  6 40  1  0
  6 41  1  0
  9 42  1  0
 11 43  1  0
 12 44  1  0
 14 45  1  0
 18 46  1  0
 19 47  1  0
 21 48  1  0
 21 49  1  0
 21 50  1  0
 23 51  1  0
 28 52  1  0
M  END
$$$$
[H]c1c([H])c(-n2c(=O)c3c(nnn3C([H])([H])c3c([H])c([H])c(Cl)c([H])c3[H])n2[H])c([H])c([H])c1F
     RDKit          3D

 35 38  0  0  0  0  0  0  0  0999 V2000
    6.4551    2.3839   -1.7307 F   0  0  0  0  0  0  0  0  0  0  0  0
    5.3362    1.7026   -1.3304 C   0  0  0  0  0  0  0  0  0  0  0  0
    5.4242    0.3716   -1.0174 C   0  0  0  0  0  0  0  0  0  0  0  0
    4.3141   -0.3243   -0.6153 C   0  0  0  0  0  0  0  0  0  0  0  0
    3.0841    0.3239   -0.5228 C   0  0  0  0  0  0  0  0  0  0  0  0
    3.0263    1.6458   -0.8397 C   0  0  0  0  0  0  0  0  0  0  0  0
    4.1287    2.3675   -1.2467 C   0  0  0  0  0  0  0  0  0  0  0  0
    1.9513   -0.4459   -0.0976 N   0  0  0  0  0  0  0  0  0  0  0  0
    1.9809   -1.2585    0.9417 N   0  0  0  0  0  0  0  0  0  0  0  0
    0.7639   -1.8347    1.0821 C   0  0  0  0  0  0  0  0  0  0  0  0
    0.0032   -2.6910    1.7915 N   0  0  0  0  0  0  0  0  0  0  0  0
   -1.1949   -2.7145    1.2420 N   0  0  0  0  0  0  0  0  0  0  0  0
   -1.2698   -1.9089    0.1927 N   0  0  0  0  0  0  0  0  0  0  0  0
   -2.4130   -1.6672   -0.6488 C   0  0  0  0  0  0  0  0  0  0  0  0
   -3.3011   -0.5917   -0.1895 C   0  0  0  0  0  0  0  0  0  0  0  0
   -3.1561    0.6833   -0.6647 C   0  0  0  0  0  0  0  0  0  0  0  0
   -3.9748    1.7261   -0.2491 C   0  0  0  0  0  0  0  0  0  0  0  0
   -4.9652    1.4706    0.6709 C   0  0  0  0  0  0  0  0  0  0  0  0
   -6.0246    2.7696    1.2227 Cl  0  0  0  0  0  0  0  0  0  0  0  0
   -5.1022    0.1887    1.1410 C   0  0  0  0  0  0  0  0  0  0  0  0
   -4.2865   -0.8649    0.7309 C   0  0  0  0  0  0  0  0  0  0  0  0
   -0.0538   -1.3523    0.0799 C   0  0  0  0  0  0  0  0  0  0  0  0
    0.7254   -0.4870   -0.6366 C   0  0  0  0  0  0  0  0  0  0  0  0
    0.3818    0.1782   -1.6425 O   0  0  0  0  0  0  0  0  0  0  0  0
    6.3727   -0.1460   -1.0843 H   0  0  0  0  0  0  0  0  0  0  0  0
    4.3836   -1.3866   -0.3654 H   0  0  0  0  0  0  0  0  0  0  0  0
    2.0942    2.1646   -0.7765 H   0  0  0  0  0  0  0  0  0  0  0  0
    4.0547    3.4290   -1.4955 H   0  0  0  0  0  0  0  0  0  0  0  0
    2.7831   -1.4599    1.5823 H   0  0  0  0  0  0  0  0  0  0  0  0
   -2.0317   -1.3703   -1.6694 H   0  0  0  0  0  0  0  0  0  0  0  0
   -2.9730   -2.6241   -0.8483 H   0  0  0  0  0  0  0  0  0  0  0  0
   -2.3829    0.8797   -1.3873 H   0  0  0  0  0  0  0  0  0  0  0  0
   -3.8316    2.7145   -0.6437 H   0  0  0  0  0  0  0  0  0  0  0  0
   -5.8870    0.0039    1.8650 H   0  0  0  0  0  0  0  0  0  0  0  0
   -4.4149   -1.8759    1.1190 H   0  0  0  0  0  0  0  0  0  0  0  0
  1  2  1  0
  2  3  2  0
  3  4  1  0
  4  5  2  0
  5  6  1  0
  6  7  2  0
  5  8  1  0
  8  9  1  0
  9 10  1  0
 10 11  1  0
 11 12  2  0
 12 13  1  0
 13 14  1  0
 14 15  1  0
 15 16  2  0
 16 17  1  0
 17 18  2  0
 18 19  1  0
 18 20  1  0
 20 21  2  0
 13 22  1  0
 22 23  1  0
 23 24  2  0
  7  2  1  0
 23  8  1  0
 22 10  2  0
 21 15  1  0
  3 25  1  0
  4 26  1  0
  6 27  1  0
  7 28  1  0
  9 29  1  0
 14 30  1  0
 14 31  1  0
 16 32  1  0
 17 33  1  0
 20 34  1  0
 21 35  1  0
M  END
$$$$
[H]OC(=O)C([H])(N([H])[H])C([H])([H])C([H])([H])SC([H])([H])c1c([H])c([H])c([H])c([H])c1[H]
     RDKit          3D

 30 30  0  0  0  0  0  0  0  0999 V2000
   -3.9217    0.1889   -0.0719 N   0  0  0  0  0  0  0  0  0  0  0  0
   -2.9066   -0.5801   -0.7660 C   0  0  0  0  0  0  0  0  0  0  0  0
   -1.9490   -1.0773    0.2946 C   0  0  0  0  0  0  0  0  0  0  0  0
   -1.3218    0.0629    1.0306 C   0  0  0  0  0  0  0  0  0  0  0  0
   -0.1862   -0.4987    2.2990 S   0  0  0  0  0  0  0  0  0  0  0  0
    1.2555   -1.3236    1.6182 C   0  0  0  0  0  0  0  0  0  0  0  0
    2.1268   -0.4229    0.8375 C   0  0  0  0  0  0  0  0  0  0  0  0
    3.1654    0.2923    1.4086 C   0  0  0  0  0  0  0  0  0  0  0  0
    3.9399    1.1174    0.6047 C   0  0  0  0  0  0  0  0  0  0  0  0
    3.6984    1.2406   -0.7492 C   0  0  0  0  0  0  0  0  0  0  0  0
    2.6532    0.5240   -1.3373 C   0  0  0  0  0  0  0  0  0  0  0  0
    1.9066   -0.2836   -0.5107 C   0  0  0  0  0  0  0  0  0  0  0  0
   -2.2277    0.2847   -1.7561 C   0  0  0  0  0  0  0  0  0  0  0  0
   -2.5970    1.5961   -1.8746 O   0  0  0  0  0  0  0  0  0  0  0  0
   -1.3154   -0.2330   -2.4671 O   0  0  0  0  0  0  0  0  0  0  0  0
   -4.2227    1.0189   -0.6586 H   0  0  0  0  0  0  0  0  0  0  0  0
   -4.7554   -0.3812    0.1465 H   0  0  0  0  0  0  0  0  0  0  0  0
   -3.4267   -1.4378   -1.2402 H   0  0  0  0  0  0  0  0  0  0  0  0
   -2.4388   -1.7560    0.9976 H   0  0  0  0  0  0  0  0  0  0  0  0
   -1.1382   -1.6237   -0.2331 H   0  0  0  0  0  0  0  0  0  0  0  0
   -2.1394    0.6346    1.5228 H   0  0  0  0  0  0  0  0  0  0  0  0
   -0.7878    0.7035    0.2943 H   0  0  0  0  0  0  0  0  0  0  0  0
    0.8943   -2.1204    0.9333 H   0  0  0  0  0  0  0  0  0  0  0  0
    1.8511   -1.8416    2.3989 H   0  0  0  0  0  0  0  0  0  0  0  0
    3.3330    0.1767    2.4692 H   0  0  0  0  0  0  0  0  0  0  0  0
    4.7528    1.6796    1.0433 H   0  0  0  0  0  0  0  0  0  0  0  0
    4.2979    1.8847   -1.3927 H   0  0  0  0  0  0  0  0  0  0  0  0
    2.4786    0.6325   -2.3994 H   0  0  0  0  0  0  0  0  0  0  0  0
    1.0965   -0.8345   -0.9884 H   0  0  0  0  0  0  0  0  0  0  0  0
   -2.1157    2.3771   -1.4540 H   0  0  0  0  0  0  0  0  0  0  0  0
  1  2  1  0
  2  3  1  0
  3  4  1  0
  4  5  1  0
  5  6  1  0
  6  7  1  0
  7  8  2  0
  8  9  1  0
  9 10  2  0
 10 11  1  0
 11 12  2  0
  2 13  1  0
 13 14  1  0
 13 15  2  0
 12  7  1  0
  1 16  1  0
  1 17  1  0
  2 18  1  0
  3 19  1  0
  3 20  1  0
  4 21  1  0
  4 22  1  0
  6 23  1  0
  6 24  1  0
  8 25  1  0
  9 26  1  0
 10 27  1  0
 11 28  1  0
 12 29  1  0
 14 30  1  0
M  END
$$$$
[H]c1sc(SC([H])([H])C(=O)C([H])(c2c([H])c([H])c([H])c(Br)c2[H])N([H])C(=O)C([H])([H])[H])nc1-c1c([H])c([H])c(F)c([H])c1[H]
     RDKit          3D

 44 46  0  0  0  0  0  0  0  0999 V2000
   -3.6157   -3.3522    0.1092 C   0  0  0  0  0  0  0  0  0  0  0  0
   -3.4634   -1.8793    0.1692 C   0  0  0  0  0  0  0  0  0  0  0  0
   -4.1470   -1.2407    1.0025 O   0  0  0  0  0  0  0  0  0  0  0  0
   -2.5691   -1.1340   -0.6857 N   0  0  0  0  0  0  0  0  0  0  0  0
   -2.5572    0.3242   -0.5558 C   0  0  0  0  0  0  0  0  0  0  0  0
   -1.3233    0.8219    0.0215 C   0  0  0  0  0  0  0  0  0  0  0  0
   -0.5299    1.4483   -0.6393 O   0  0  0  0  0  0  0  0  0  0  0  0
   -0.9756    0.5587    1.4590 C   0  0  0  0  0  0  0  0  0  0  0  0
    0.6967    1.1064    1.8342 S   0  0  0  0  0  0  0  0  0  0  0  0
    1.8914    0.3492    0.7592 C   0  0  0  0  0  0  0  0  0  0  0  0
    3.2061    0.4552    0.8498 N   0  0  0  0  0  0  0  0  0  0  0  0
    3.9628   -0.0360   -0.0592 C   0  0  0  0  0  0  0  0  0  0  0  0
    3.3659   -0.6751   -1.1290 C   0  0  0  0  0  0  0  0  0  0  0  0
    1.7170   -0.5067   -0.7111 S   0  0  0  0  0  0  0  0  0  0  0  0
    5.4414   -0.0255   -0.0015 C   0  0  0  0  0  0  0  0  0  0  0  0
    6.2196    0.0502   -1.1392 C   0  0  0  0  0  0  0  0  0  0  0  0
    7.5951   -0.0542   -1.0688 C   0  0  0  0  0  0  0  0  0  0  0  0
    8.2392   -0.2411    0.1341 C   0  0  0  0  0  0  0  0  0  0  0  0
    9.5812   -0.3473    0.2510 F   0  0  0  0  0  0  0  0  0  0  0  0
    7.4488   -0.3213    1.2867 C   0  0  0  0  0  0  0  0  0  0  0  0
    6.0475   -0.2151    1.2128 C   0  0  0  0  0  0  0  0  0  0  0  0
   -3.8427    0.9551   -0.3328 C   0  0  0  0  0  0  0  0  0  0  0  0
   -4.9584    0.4405   -1.0840 C   0  0  0  0  0  0  0  0  0  0  0  0
   -6.2034    0.9818   -1.0180 C   0  0  0  0  0  0  0  0  0  0  0  0
   -6.4274    2.0671   -0.2098 C   0  0  0  0  0  0  0  0  0  0  0  0
   -5.4014    2.6013    0.5276 C   0  0  0  0  0  0  0  0  0  0  0  0
   -5.7057    4.1149    1.6626 Br  0  0  0  0  0  0  0  0  0  0  0  0
   -4.1154    2.0251    0.4499 C   0  0  0  0  0  0  0  0  0  0  0  0
   -4.6007   -3.5171   -0.4360 H   0  0  0  0  0  0  0  0  0  0  0  0
   -3.7655   -3.7570    1.1352 H   0  0  0  0  0  0  0  0  0  0  0  0
   -2.8447   -3.8992   -0.4025 H   0  0  0  0  0  0  0  0  0  0  0  0
   -1.9841   -1.6416   -1.3369 H   0  0  0  0  0  0  0  0  0  0  0  0
   -2.4221    0.6341   -1.7335 H   0  0  0  0  0  0  0  0  0  0  0  0
   -0.9720   -0.5671    1.5447 H   0  0  0  0  0  0  0  0  0  0  0  0
   -1.6891    0.9854    2.1625 H   0  0  0  0  0  0  0  0  0  0  0  0
    3.8924   -1.1502   -1.9868 H   0  0  0  0  0  0  0  0  0  0  0  0
    5.6855    0.2209   -2.0547 H   0  0  0  0  0  0  0  0  0  0  0  0
    8.2330    0.0256   -1.9553 H   0  0  0  0  0  0  0  0  0  0  0  0
    7.9144   -0.4691    2.2710 H   0  0  0  0  0  0  0  0  0  0  0  0
    5.4882   -0.2937    2.1323 H   0  0  0  0  0  0  0  0  0  0  0  0
   -4.7554   -0.4108   -1.7076 H   0  0  0  0  0  0  0  0  0  0  0  0
   -7.0293    0.5614   -1.6129 H   0  0  0  0  0  0  0  0  0  0  0  0
   -7.4021    2.5237   -0.1347 H   0  0  0  0  0  0  0  0  0  0  0  0
   -3.3254    2.4835    1.0200 H   0  0  0  0  0  0  0  0  0  0  0  0
  1  2  1  0
  2  3  2  0
  2  4  1  0
  4  5  1  0
  5  6  1  0
  6  7  2  0
  6  8  1  0
  8  9  1  0
  9 10  1  0
 10 11  2  0
 11 12  1  0
 12 13  2  0
 13 14  1  0
 12 15  1  0
 15 16  2  0
 16 17  1  0
 17 18  2  0
 18 19  1  0
 18 20  1  0
 20 21  2  0
  5 22  1  0
 22 23  2  0
 23 24  1  0
 24 25  2  0
 25 26  1  0
 26 27  1  0
 26 28  2  0
 14 10  1  0
 21 15  1  0
 28 22  1  0
  1 29  1  0
  1 30  1  0
  1 31  1  0
  4 32  1  0
  5 33  1  0
  8 34  1  0
  8 35  1  0
 13 36  1  0
 16 37  1  0
 17 38  1  0
 20 39  1  0
 21 40  1  0
 23 41  1  0
 24 42  1  0
 25 43  1  0
 28 44  1  0
M  END
$$$$
[H]OC([H])([H])C([H])([H])n1c2c(c3c([H])c(OC([H])([H])[H])c([H])c([H])c31)C([H])([H])C(C([H])([H])[H])(C([H])([H])[H])C2([H])[H]
     RDKit          3D

 40 42  0  0  0  0  0  0  0  0999 V2000
    4.7912   -2.5506   -0.3838 C   0  0  0  0  0  0  0  0  0  0  0  0
    4.6628   -1.2111    0.0354 O   0  0  0  0  0  0  0  0  0  0  0  0
    3.4651   -0.5497    0.1683 C   0  0  0  0  0  0  0  0  0  0  0  0
    3.5159    0.7683    0.5923 C   0  0  0  0  0  0  0  0  0  0  0  0
    2.3644    1.4943    0.7488 C   0  0  0  0  0  0  0  0  0  0  0  0
    1.1110    0.9687    0.4991 C   0  0  0  0  0  0  0  0  0  0  0  0
   -0.1325    1.4482    0.5709 N   0  0  0  0  0  0  0  0  0  0  0  0
   -0.5310    2.7753    0.9684 C   0  0  0  0  0  0  0  0  0  0  0  0
   -0.6040    3.7324   -0.2024 C   0  0  0  0  0  0  0  0  0  0  0  0
   -1.0022    4.9755    0.3453 O   0  0  0  0  0  0  0  0  0  0  0  0
   -0.9851    0.4808    0.2063 C   0  0  0  0  0  0  0  0  0  0  0  0
   -2.4566    0.2064    0.0226 C   0  0  0  0  0  0  0  0  0  0  0  0
   -2.5148   -1.2983   -0.0458 C   0  0  0  0  0  0  0  0  0  0  0  0
   -2.7598   -1.9162    1.3153 C   0  0  0  0  0  0  0  0  0  0  0  0
   -3.6394   -1.7260   -0.9451 C   0  0  0  0  0  0  0  0  0  0  0  0
   -1.1656   -1.7634   -0.5218 C   0  0  0  0  0  0  0  0  0  0  0  0
   -0.2538   -0.6432   -0.1047 C   0  0  0  0  0  0  0  0  0  0  0  0
    1.0825   -0.3639    0.0718 C   0  0  0  0  0  0  0  0  0  0  0  0
    2.2415   -1.0984   -0.0869 C   0  0  0  0  0  0  0  0  0  0  0  0
    5.7638   -2.7640   -0.8489 H   0  0  0  0  0  0  0  0  0  0  0  0
    4.6273   -3.2056    0.4936 H   0  0  0  0  0  0  0  0  0  0  0  0
    3.9999   -2.8354   -1.1369 H   0  0  0  0  0  0  0  0  0  0  0  0
    4.4681    1.2345    0.8033 H   0  0  0  0  0  0  0  0  0  0  0  0
    2.4478    2.5158    1.0803 H   0  0  0  0  0  0  0  0  0  0  0  0
    0.1006    3.1520    1.7788 H   0  0  0  0  0  0  0  0  0  0  0  0
   -1.5780    2.7491    1.3933 H   0  0  0  0  0  0  0  0  0  0  0  0
    0.3197    3.8042   -0.7744 H   0  0  0  0  0  0  0  0  0  0  0  0
   -1.4179    3.4601   -0.9052 H   0  0  0  0  0  0  0  0  0  0  0  0
   -0.2921    5.3605    0.9114 H   0  0  0  0  0  0  0  0  0  0  0  0
   -3.0473    0.5926    0.8546 H   0  0  0  0  0  0  0  0  0  0  0  0
   -2.7306    0.6877   -0.9322 H   0  0  0  0  0  0  0  0  0  0  0  0
   -2.6152   -3.0155    1.1925 H   0  0  0  0  0  0  0  0  0  0  0  0
   -3.7595   -1.6834    1.7199 H   0  0  0  0  0  0  0  0  0  0  0  0
   -1.9383   -1.5625    1.9745 H   0  0  0  0  0  0  0  0  0  0  0  0
   -4.5735   -1.7795   -0.3630 H   0  0  0  0  0  0  0  0  0  0  0  0
   -3.7788   -1.0170   -1.7755 H   0  0  0  0  0  0  0  0  0  0  0  0
   -3.3600   -2.7199   -1.3725 H   0  0  0  0  0  0  0  0  0  0  0  0
   -0.8482   -2.7267   -0.0715 H   0  0  0  0  0  0  0  0  0  0  0  0
   -1.1991   -1.8364   -1.6333 H   0  0  0  0  0  0  0  0  0  0  0  0
    2.2217   -2.1396   -0.4205 H   0  0  0  0  0  0  0  0  0  0  0  0
  1  2  1  0
  2  3  1  0
  3  4  2  0
  4  5  1  0
  5  6  2  0
  6  7  1  0
  7  8  1  0
  8  9  1  0
  9 10  1  0
  7 11  1  0
 11 12  1  0
 12 13  1  0
 13 14  1  0
 13 15  1  0
 13 16  1  0
 16 17  1  0
 17 18  1  0
 18 19  2  0
 19  3  1  0
 18  6  1  0
 17 11  2  0
  1 20  1  0
  1 21  1  0
  1 22  1  0
  4 23  1  0
  5 24  1  0
  8 25  1  0
  8 26  1  0
  9 27  1  0
  9 28  1  0
 10 29  1  0
 12 30  1  0
 12 31  1  0
 14 32  1  0
 14 33  1  0
 14 34  1  0
 15 35  1  0
 15 36  1  0
 15 37  1  0
 16 38  1  0
 16 39  1  0
 19 40  1  0
M  END
$$$$
