[H]c1c([H])c([H])c(C(=C2C(=O)N(N([H])C(=O)C([H])([H])C([H])([H])C([H])([H])C([H])([H])C([H])([H])C([H])([H])C([H])([H])C([H])([H])C([H])([H])C([H])([H])C([H])([H])c3c([H])c([H])c(OC([H])([H])[H])c([H])c3[H])c3c([H])c([H])c([H])c([H])c32)c2c([H])c([H])c([H])c([H])c2[H])c([H])c1[H]
     RDKit          3D

 89 93  0  0  0  0  0  0  0  0999 V2000
   13.3258    2.5291   -1.1422 C   0  0  0  0  0  0  0  0  0  0  0  0
   12.7165    1.2704   -1.1749 O   0  0  0  0  0  0  0  0  0  0  0  0
   11.3724    1.0547   -0.8739 C   0  0  0  0  0  0  0  0  0  0  0  0
   10.5403    2.0671   -0.5216 C   0  0  0  0  0  0  0  0  0  0  0  0
    9.2017    1.7712   -0.2335 C   0  0  0  0  0  0  0  0  0  0  0  0
    8.7510    0.4732   -0.3101 C   0  0  0  0  0  0  0  0  0  0  0  0
    7.2906    0.2183    0.0134 C   0  0  0  0  0  0  0  0  0  0  0  0
    7.2415   -0.0536    1.4681 C   0  0  0  0  0  0  0  0  0  0  0  0
    5.9352   -0.2965    2.1145 C   0  0  0  0  0  0  0  0  0  0  0  0
    5.0957   -1.4336    1.7533 C   0  0  0  0  0  0  0  0  0  0  0  0
    4.5390   -1.6195    0.4158 C   0  0  0  0  0  0  0  0  0  0  0  0
    3.6715   -0.5006   -0.0932 C   0  0  0  0  0  0  0  0  0  0  0  0
    2.4658   -0.2635    0.7829 C   0  0  0  0  0  0  0  0  0  0  0  0
    1.5723   -1.4487    0.9013 C   0  0  0  0  0  0  0  0  0  0  0  0
    0.9970   -1.9277   -0.4153 C   0  0  0  0  0  0  0  0  0  0  0  0
    0.1168   -3.1307   -0.1948 C   0  0  0  0  0  0  0  0  0  0  0  0
   -1.0338   -2.9178    0.7063 C   0  0  0  0  0  0  0  0  0  0  0  0
   -2.0227   -1.9407    0.2717 C   0  0  0  0  0  0  0  0  0  0  0  0
   -1.9389   -1.3866   -0.8443 O   0  0  0  0  0  0  0  0  0  0  0  0
   -3.1282   -1.5815    1.1107 N   0  0  0  0  0  0  0  0  0  0  0  0
   -4.0789   -0.6494    0.6959 N   0  0  0  0  0  0  0  0  0  0  0  0
   -5.4576   -0.9792    0.4939 C   0  0  0  0  0  0  0  0  0  0  0  0
   -5.9485   -2.1369    0.6598 O   0  0  0  0  0  0  0  0  0  0  0  0
   -6.2190    0.1925    0.0668 C   0  0  0  0  0  0  0  0  0  0  0  0
   -7.4939    0.3355   -0.1258 C   0  0  0  0  0  0  0  0  0  0  0  0
   -8.4101   -0.8022    0.1210 C   0  0  0  0  0  0  0  0  0  0  0  0
   -8.5952   -1.3615    1.3366 C   0  0  0  0  0  0  0  0  0  0  0  0
   -9.4783   -2.4244    1.4445 C   0  0  0  0  0  0  0  0  0  0  0  0
  -10.1392   -2.8822    0.3276 C   0  0  0  0  0  0  0  0  0  0  0  0
   -9.9566   -2.3167   -0.9202 C   0  0  0  0  0  0  0  0  0  0  0  0
   -9.0788   -1.2634   -1.0148 C   0  0  0  0  0  0  0  0  0  0  0  0
   -8.1682    1.4947   -0.7190 C   0  0  0  0  0  0  0  0  0  0  0  0
   -9.0315    2.2332    0.0659 C   0  0  0  0  0  0  0  0  0  0  0  0
   -9.7862    3.2846   -0.4286 C   0  0  0  0  0  0  0  0  0  0  0  0
   -9.6684    3.6060   -1.7644 C   0  0  0  0  0  0  0  0  0  0  0  0
   -8.8039    2.8709   -2.5639 C   0  0  0  0  0  0  0  0  0  0  0  0
   -8.0559    1.8256   -2.0644 C   0  0  0  0  0  0  0  0  0  0  0  0
   -5.1841    1.2667    0.0265 C   0  0  0  0  0  0  0  0  0  0  0  0
   -5.1938    2.6087   -0.2599 C   0  0  0  0  0  0  0  0  0  0  0  0
   -4.0257    3.3670   -0.1795 C   0  0  0  0  0  0  0  0  0  0  0  0
   -2.8337    2.7989    0.1885 C   0  0  0  0  0  0  0  0  0  0  0  0
   -2.7901    1.4752    0.4813 C   0  0  0  0  0  0  0  0  0  0  0  0
   -3.9631    0.7186    0.4002 C   0  0  0  0  0  0  0  0  0  0  0  0
    9.5747   -0.5610   -0.6636 C   0  0  0  0  0  0  0  0  0  0  0  0
   10.8947   -0.2412   -0.9437 C   0  0  0  0  0  0  0  0  0  0  0  0
   14.4312    2.3672   -0.9824 H   0  0  0  0  0  0  0  0  0  0  0  0
   12.9297    3.1378   -0.3220 H   0  0  0  0  0  0  0  0  0  0  0  0
   13.2542    3.0613   -2.1225 H   0  0  0  0  0  0  0  0  0  0  0  0
   10.8706    3.0755   -0.4566 H   0  0  0  0  0  0  0  0  0  0  0  0
    8.5116    2.5628    0.0521 H   0  0  0  0  0  0  0  0  0  0  0  0
    6.7428    1.1171   -0.2930 H   0  0  0  0  0  0  0  0  0  0  0  0
    6.9710   -0.6385   -0.5919 H   0  0  0  0  0  0  0  0  0  0  0  0
    7.8910   -0.9661    1.7002 H   0  0  0  0  0  0  0  0  0  0  0  0
    7.7745    0.7502    2.0586 H   0  0  0  0  0  0  0  0  0  0  0  0
    5.3802    0.6969    2.0386 H   0  0  0  0  0  0  0  0  0  0  0  0
    6.1808   -0.3768    3.2407 H   0  0  0  0  0  0  0  0  0  0  0  0
    5.7256   -2.3742    1.9617 H   0  0  0  0  0  0  0  0  0  0  0  0
    4.2999   -1.5617    2.5744 H   0  0  0  0  0  0  0  0  0  0  0  0
    5.2473   -1.9185   -0.3347 H   0  0  0  0  0  0  0  0  0  0  0  0
    3.8250   -2.5167    0.4798 H   0  0  0  0  0  0  0  0  0  0  0  0
    3.3034   -0.7943   -1.0954 H   0  0  0  0  0  0  0  0  0  0  0  0
    4.1726    0.4634   -0.2144 H   0  0  0  0  0  0  0  0  0  0  0  0
    2.7154    0.0894    1.7893 H   0  0  0  0  0  0  0  0  0  0  0  0
    1.8818    0.5531    0.2927 H   0  0  0  0  0  0  0  0  0  0  0  0
    2.0224   -2.3113    1.4068 H   0  0  0  0  0  0  0  0  0  0  0  0
    0.7025   -1.1341    1.5397 H   0  0  0  0  0  0  0  0  0  0  0  0
    0.4108   -1.1446   -0.9130 H   0  0  0  0  0  0  0  0  0  0  0  0
    1.8426   -2.1918   -1.1257 H   0  0  0  0  0  0  0  0  0  0  0  0
    0.7913   -3.8928    0.3041 H   0  0  0  0  0  0  0  0  0  0  0  0
   -0.1522   -3.6232   -1.1583 H   0  0  0  0  0  0  0  0  0  0  0  0
   -1.5499   -3.9194    0.8111 H   0  0  0  0  0  0  0  0  0  0  0  0
   -0.6622   -2.7193    1.7425 H   0  0  0  0  0  0  0  0  0  0  0  0
   -3.2008   -2.0503    2.0621 H   0  0  0  0  0  0  0  0  0  0  0  0
   -8.0713   -0.9865    2.2074 H   0  0  0  0  0  0  0  0  0  0  0  0
   -9.6370   -2.8781    2.3929 H   0  0  0  0  0  0  0  0  0  0  0  0
  -10.8144   -3.6985    0.4255 H   0  0  0  0  0  0  0  0  0  0  0  0
  -10.5111   -2.7318   -1.7499 H   0  0  0  0  0  0  0  0  0  0  0  0
   -8.9244   -0.8103   -1.9820 H   0  0  0  0  0  0  0  0  0  0  0  0
   -9.1423    2.0030    1.1132 H   0  0  0  0  0  0  0  0  0  0  0  0
  -10.4500    3.8261    0.2511 H   0  0  0  0  0  0  0  0  0  0  0  0
  -10.2605    4.4271   -2.1424 H   0  0  0  0  0  0  0  0  0  0  0  0
   -8.7574    3.1744   -3.6017 H   0  0  0  0  0  0  0  0  0  0  0  0
   -7.3971    1.2708   -2.6896 H   0  0  0  0  0  0  0  0  0  0  0  0
   -6.1009    3.1192   -0.5208 H   0  0  0  0  0  0  0  0  0  0  0  0
   -4.0347    4.4264   -0.4072 H   0  0  0  0  0  0  0  0  0  0  0  0
   -1.9063    3.3671    0.2589 H   0  0  0  0  0  0  0  0  0  0  0  0
   -1.8473    1.0096    0.7773 H   0  0  0  0  0  0  0  0  0  0  0  0
    9.1743   -1.5440   -0.7072 H   0  0  0  0  0  0  0  0  0  0  0  0
   11.5494   -1.0585   -1.2238 H   0  0  0  0  0  0  0  0  0  0  0  0
  1  2  1  0
  2  3  1  0
  3  4  2  0
  4  5  1  0
  5  6  2  0
  6  7  1  0
  7  8  1  0
  8  9  1  0
  9 10  1  0
 10 11  1  0
 11 12  1  0
 12 13  1  0
 13 14  1  0
 14 15  1  0
 15 16  1  0
 16 17  1  0
 17 18  1  0
 18 19  2  0
 18 20  1  0
 20 21  1  0
 21 22  1  0
 22 23  2  0
 22 24  1  0
 24 25  2  3
 25 26  1  0
 26 27  2  0
 27 28  1  0
 28 29  2  0
 29 30  1  0
 30 31  2  0
 25 32  1  0
 32 33  2  0
 33 34  1  0
 34 35  2  0
 35 36  1  0
 36 37  2  0
 24 38  1  0
 38 39  2  0
 39 40  1  0
 40 41  2  0
 41 42  1  0
 42 43  2  0
  6 44  1  0
 44 45  2  0
 45  3  1  0
 43 21  1  0
 31 26  1  0
 37 32  1  0
 43 38  1  0
  1 46  1  0
  1 47  1  0
  1 48  1  0
  4 49  1  0
  5 50  1  0
  7 51  1  0
  7 52  1  0
  8 53  1  0
  8 54  1  0
  9 55  1  0
  9 56  1  0
 10 57  1  0
 10 58  1  0
 11 59  1  0
 11 60  1  0
 12 61  1  0
 12 62  1  0
 13 63  1  0
 13 64  1  0
 14 65  1  0
 14 66  1  0
 15 67  1  0
 15 68  1  0
 16 69  1  0
 16 70  1  0
 17 71  1  0
 17 72  1  0
 20 73  1  0
 27 74  1  0
 28 75  1  0
 29 76  1  0
 30 77  1  0
 31 78  1  0
 33 79  1  0
 34 80  1  0
 35 81  1  0
 36 82  1  0
 37 83  1  0
 39 84  1  0
 40 85  1  0
 41 86  1  0
 42 87  1  0
 44 88  1  0
 45 89  1  0
M  END
$$$$
[H]c1nc(N([H])[H])c2nc(-c3c([H])c([H])c(C([H])([H])N4C([H])([H])C([H])([H])N(C([H])([H])[H])C([H])([H])C4([H])[H])c([H])c3[H])c([H])n2c1-c1c([H])c([H])c(N2C([H])([H])C([H])([H])N(C(=O)C([H])([H])[H])C([H])([H])C2([H])[H])c([H])c1[H]
     RDKit          3D

 75 80  0  0  0  0  0  0  0  0999 V2000
   -7.7771    3.3497   -2.8388 C   0  0  0  0  0  0  0  0  0  0  0  0
   -7.6123    2.1737   -2.0098 N   0  0  0  0  0  0  0  0  0  0  0  0
   -6.4274    1.4662   -2.3973 C   0  0  0  0  0  0  0  0  0  0  0  0
   -5.6685    0.9292   -1.1986 C   0  0  0  0  0  0  0  0  0  0  0  0
   -5.3380    1.9563   -0.2578 N   0  0  0  0  0  0  0  0  0  0  0  0
   -5.2321    1.3687    1.0617 C   0  0  0  0  0  0  0  0  0  0  0  0
   -4.1702    0.3437    0.9950 C   0  0  0  0  0  0  0  0  0  0  0  0
   -4.5168   -0.9792    0.9976 C   0  0  0  0  0  0  0  0  0  0  0  0
   -3.4698   -1.9039    0.9270 C   0  0  0  0  0  0  0  0  0  0  0  0
   -2.1527   -1.5166    0.8576 C   0  0  0  0  0  0  0  0  0  0  0  0
   -1.8535   -0.1775    0.8576 C   0  0  0  0  0  0  0  0  0  0  0  0
   -2.8618    0.7641    0.9265 C   0  0  0  0  0  0  0  0  0  0  0  0
   -1.0862   -2.5097    0.7885 C   0  0  0  0  0  0  0  0  0  0  0  0
    0.2596   -2.2955    0.6827 C   0  0  0  0  0  0  0  0  0  0  0  0
    0.8692   -3.4879    0.6453 N   0  0  0  0  0  0  0  0  0  0  0  0
    2.1606   -3.8123    0.5480 C   0  0  0  0  0  0  0  0  0  0  0  0
    2.5021   -5.1482    0.5334 C   0  0  0  0  0  0  0  0  0  0  0  0
    1.5710   -6.1286    0.6139 N   0  0  0  0  0  0  0  0  0  0  0  0
    0.2747   -5.8030    0.7111 C   0  0  0  0  0  0  0  0  0  0  0  0
   -0.7359   -6.8091    0.7976 N   0  0  0  0  0  0  0  0  0  0  0  0
   -0.0782   -4.4697    0.7267 C   0  0  0  0  0  0  0  0  0  0  0  0
   -1.2761   -3.8548    0.8142 N   0  0  0  0  0  0  0  0  0  0  0  0
    3.2252   -2.8077    0.4479 C   0  0  0  0  0  0  0  0  0  0  0  0
    3.8330   -2.2896    1.5691 C   0  0  0  0  0  0  0  0  0  0  0  0
    4.8507   -1.3352    1.4588 C   0  0  0  0  0  0  0  0  0  0  0  0
    5.2942   -0.8677    0.2416 C   0  0  0  0  0  0  0  0  0  0  0  0
    4.6676   -1.4019   -0.8851 C   0  0  0  0  0  0  0  0  0  0  0  0
    3.6642   -2.3439   -0.7756 C   0  0  0  0  0  0  0  0  0  0  0  0
    6.3170    0.1076    0.1264 N   0  0  0  0  0  0  0  0  0  0  0  0
    7.0742    0.3251   -1.1206 C   0  0  0  0  0  0  0  0  0  0  0  0
    6.5072    1.6099   -1.6848 C   0  0  0  0  0  0  0  0  0  0  0  0
    6.0041    2.4597   -0.6083 N   0  0  0  0  0  0  0  0  0  0  0  0
    6.5456    2.4105    0.7284 C   0  0  0  0  0  0  0  0  0  0  0  0
    6.7023    0.9956    1.2014 C   0  0  0  0  0  0  0  0  0  0  0  0
    4.9488    3.3720   -0.8762 C   0  0  0  0  0  0  0  0  0  0  0  0
    4.4053    4.2560    0.1609 C   0  0  0  0  0  0  0  0  0  0  0  0
    4.4719    3.4174   -2.0394 O   0  0  0  0  0  0  0  0  0  0  0  0
   -6.2644    3.0466   -0.2367 C   0  0  0  0  0  0  0  0  0  0  0  0
   -7.6353    2.5393   -0.6228 C   0  0  0  0  0  0  0  0  0  0  0  0
   -7.4107    4.2795   -2.3417 H   0  0  0  0  0  0  0  0  0  0  0  0
   -7.2117    3.2859   -3.7960 H   0  0  0  0  0  0  0  0  0  0  0  0
   -8.8402    3.4967   -3.1346 H   0  0  0  0  0  0  0  0  0  0  0  0
   -6.7457    0.5657   -2.9817 H   0  0  0  0  0  0  0  0  0  0  0  0
   -5.7660    2.0382   -3.0919 H   0  0  0  0  0  0  0  0  0  0  0  0
   -6.2380    0.0857   -0.7740 H   0  0  0  0  0  0  0  0  0  0  0  0
   -4.7167    0.5075   -1.6002 H   0  0  0  0  0  0  0  0  0  0  0  0
   -4.9843    2.1200    1.8232 H   0  0  0  0  0  0  0  0  0  0  0  0
   -6.1865    0.8957    1.3817 H   0  0  0  0  0  0  0  0  0  0  0  0
   -5.5239   -1.3428    1.0487 H   0  0  0  0  0  0  0  0  0  0  0  0
   -3.6568   -2.9757    0.9257 H   0  0  0  0  0  0  0  0  0  0  0  0
   -0.8216    0.1506    0.8040 H   0  0  0  0  0  0  0  0  0  0  0  0
   -2.5707    1.7964    0.9232 H   0  0  0  0  0  0  0  0  0  0  0  0
    0.7441   -1.3391    0.6387 H   0  0  0  0  0  0  0  0  0  0  0  0
    3.5623   -5.3938    0.4520 H   0  0  0  0  0  0  0  0  0  0  0  0
   -1.7347   -6.5322    0.6426 H   0  0  0  0  0  0  0  0  0  0  0  0
   -0.5239   -7.8026    1.0075 H   0  0  0  0  0  0  0  0  0  0  0  0
    3.5016   -2.6399    2.5367 H   0  0  0  0  0  0  0  0  0  0  0  0
    5.2999   -0.9616    2.3760 H   0  0  0  0  0  0  0  0  0  0  0  0
    4.9988   -1.0418   -1.8515 H   0  0  0  0  0  0  0  0  0  0  0  0
    3.1765   -2.7613   -1.6536 H   0  0  0  0  0  0  0  0  0  0  0  0
    6.9205   -0.5499   -1.7627 H   0  0  0  0  0  0  0  0  0  0  0  0
    8.1505    0.4059   -0.8963 H   0  0  0  0  0  0  0  0  0  0  0  0
    7.2519    2.0832   -2.3152 H   0  0  0  0  0  0  0  0  0  0  0  0
    5.6385    1.3293   -2.3077 H   0  0  0  0  0  0  0  0  0  0  0  0
    7.4846    2.9984    0.8213 H   0  0  0  0  0  0  0  0  0  0  0  0
    5.7965    2.8799    1.4220 H   0  0  0  0  0  0  0  0  0  0  0  0
    6.2048    0.8001    2.1608 H   0  0  0  0  0  0  0  0  0  0  0  0
    7.8130    0.8340    1.3818 H   0  0  0  0  0  0  0  0  0  0  0  0
    3.7784    3.7117    0.8652 H   0  0  0  0  0  0  0  0  0  0  0  0
    3.8345    5.1114   -0.2901 H   0  0  0  0  0  0  0  0  0  0  0  0
    5.2671    4.7016    0.7249 H   0  0  0  0  0  0  0  0  0  0  0  0
   -6.2683    3.4997    0.7790 H   0  0  0  0  0  0  0  0  0  0  0  0
   -5.9521    3.7764   -1.0134 H   0  0  0  0  0  0  0  0  0  0  0  0
   -8.4028    3.3568   -0.5129 H   0  0  0  0  0  0  0  0  0  0  0  0
   -7.8608    1.6814    0.0549 H   0  0  0  0  0  0  0  0  0  0  0  0
  1  2  1  0
  2  3  1  0
  3  4  1  0
  4  5  1  0
  5  6  1  0
  6  7  1  0
  7  8  2  0
  8  9  1  0
  9 10  2  0
 10 11  1  0
 11 12  2  0
 10 13  1  0
 13 14  2  0
 14 15  1  0
 15 16  1  0
 16 17  2  0
 17 18  1  0
 18 19  2  0
 19 20  1  0
 19 21  1  0
 21 22  2  0
 16 23  1  0
 23 24  2  0
 24 25  1  0
 25 26  2  0
 26 27  1  0
 27 28  2  0
 26 29  1  0
 29 30  1  0
 30 31  1  0
 31 32  1  0
 32 33  1  0
 33 34  1  0
 32 35  1  0
 35 36  1  0
 35 37  2  0
  5 38  1  0
 38 39  1  0
 39  2  1  0
 12  7  1  0
 22 13  1  0
 28 23  1  0
 34 29  1  0
 21 15  1  0
  1 40  1  0
  1 41  1  0
  1 42  1  0
  3 43  1  0
  3 44  1  0
  4 45  1  0
  4 46  1  0
  6 47  1  0
  6 48  1  0
  8 49  1  0
  9 50  1  0
 11 51  1  0
 12 52  1  0
 14 53  1  0
 17 54  1  0
 20 55  1  0
 20 56  1  0
 24 57  1  0
 25 58  1  0
 27 59  1  0
 28 60  1  0
 30 61  1  0
 30 62  1  0
 31 63  1  0
 31 64  1  0
 33 65  1  0
 33 66  1  0
 34 67  1  0
 34 68  1  0
 36 69  1  0
 36 70  1  0
 36 71  1  0
 38 72  1  0
 38 73  1  0
 39 74  1  0
 39 75  1  0
M  END
$$$$
[H]c1nc2c([H])c([H])c(N(C([H])([H])[H])S(=O)(=O)c3c([H])c(F)c([H])c([H])c3F)nc2c([H])c1-c1c([H])nn(C2([H])C([H])([H])N([H])C([H])([H])C2([H])[H])c1[H]
     RDKit          3D

 53 57  0  0  0  0  0  0  0  0999 V2000
   -4.2077    2.2748   -1.3215 C   0  0  0  0  0  0  0  0  0  0  0  0
   -3.8806    0.8840   -1.1076 N   0  0  0  0  0  0  0  0  0  0  0  0
   -2.7861    0.6256   -0.1958 C   0  0  0  0  0  0  0  0  0  0  0  0
   -3.1303    0.4775    1.1299 C   0  0  0  0  0  0  0  0  0  0  0  0
   -2.1427    0.2301    2.0530 C   0  0  0  0  0  0  0  0  0  0  0  0
   -0.8261    0.1386    1.6083 C   0  0  0  0  0  0  0  0  0  0  0  0
    0.1687   -0.1024    2.4810 N   0  0  0  0  0  0  0  0  0  0  0  0
    1.4672   -0.1993    2.0904 C   0  0  0  0  0  0  0  0  0  0  0  0
    1.8283   -0.0524    0.7587 C   0  0  0  0  0  0  0  0  0  0  0  0
    0.8010    0.1957   -0.1368 C   0  0  0  0  0  0  0  0  0  0  0  0
   -0.5014    0.2896    0.2782 C   0  0  0  0  0  0  0  0  0  0  0  0
   -1.5170    0.5330   -0.5940 N   0  0  0  0  0  0  0  0  0  0  0  0
    3.2124   -0.1580    0.3599 C   0  0  0  0  0  0  0  0  0  0  0  0
    3.8108    0.5016   -0.6855 C   0  0  0  0  0  0  0  0  0  0  0  0
    5.0917    0.1216   -0.7052 N   0  0  0  0  0  0  0  0  0  0  0  0
    5.3342   -0.7427    0.2720 N   0  0  0  0  0  0  0  0  0  0  0  0
    4.1812   -0.9382    0.9551 C   0  0  0  0  0  0  0  0  0  0  0  0
    6.6066   -1.3731    0.5658 C   0  0  0  0  0  0  0  0  0  0  0  0
    7.3729   -0.6153    1.6252 C   0  0  0  0  0  0  0  0  0  0  0  0
    8.5644    0.0133    0.8985 C   0  0  0  0  0  0  0  0  0  0  0  0
    8.8248   -0.9365   -0.1697 N   0  0  0  0  0  0  0  0  0  0  0  0
    7.5067   -1.2839   -0.6562 C   0  0  0  0  0  0  0  0  0  0  0  0
   -4.6627   -0.4537   -1.8242 S   0  0  0  0  0  0  0  0  0  0  0  0
   -4.5080   -0.4360   -3.3303 O   0  0  0  0  0  0  0  0  0  0  0  0
   -3.9928   -1.7212   -1.3421 O   0  0  0  0  0  0  0  0  0  0  0  0
   -6.3684   -0.5839   -1.4072 C   0  0  0  0  0  0  0  0  0  0  0  0
   -6.7981   -1.6560   -0.6079 C   0  0  0  0  0  0  0  0  0  0  0  0
   -8.1065   -1.7805   -0.2394 C   0  0  0  0  0  0  0  0  0  0  0  0
   -8.5061   -2.8325    0.5401 F   0  0  0  0  0  0  0  0  0  0  0  0
   -8.9931   -0.8269   -0.6724 C   0  0  0  0  0  0  0  0  0  0  0  0
   -8.5992    0.2306   -1.4547 C   0  0  0  0  0  0  0  0  0  0  0  0
   -7.2611    0.3657   -1.8373 C   0  0  0  0  0  0  0  0  0  0  0  0
   -6.8994    1.4050   -2.6319 F   0  0  0  0  0  0  0  0  0  0  0  0
   -4.2772    2.5382   -2.4089 H   0  0  0  0  0  0  0  0  0  0  0  0
   -3.3715    2.9248   -0.9206 H   0  0  0  0  0  0  0  0  0  0  0  0
   -5.0764    2.5453   -0.7226 H   0  0  0  0  0  0  0  0  0  0  0  0
   -4.1538    0.5500    1.4668 H   0  0  0  0  0  0  0  0  0  0  0  0
   -2.3938    0.1111    3.0967 H   0  0  0  0  0  0  0  0  0  0  0  0
    2.2656   -0.3936    2.7966 H   0  0  0  0  0  0  0  0  0  0  0  0
    1.0356    0.3165   -1.1800 H   0  0  0  0  0  0  0  0  0  0  0  0
    3.3370    1.1905   -1.3570 H   0  0  0  0  0  0  0  0  0  0  0  0
    4.0961   -1.6036    1.8114 H   0  0  0  0  0  0  0  0  0  0  0  0
    6.4695   -2.4167    0.9057 H   0  0  0  0  0  0  0  0  0  0  0  0
    6.7930    0.1636    2.1230 H   0  0  0  0  0  0  0  0  0  0  0  0
    7.8319   -1.3326    2.3576 H   0  0  0  0  0  0  0  0  0  0  0  0
    9.4575    0.0687    1.5809 H   0  0  0  0  0  0  0  0  0  0  0  0
    8.2977    1.0030    0.5166 H   0  0  0  0  0  0  0  0  0  0  0  0
    9.3551   -1.7530    0.1971 H   0  0  0  0  0  0  0  0  0  0  0  0
    7.1351   -0.4533   -1.2884 H   0  0  0  0  0  0  0  0  0  0  0  0
    7.5142   -2.2574   -1.2057 H   0  0  0  0  0  0  0  0  0  0  0  0
   -6.0748   -2.3914   -0.2826 H   0  0  0  0  0  0  0  0  0  0  0  0
  -10.0380   -0.9290   -0.3758 H   0  0  0  0  0  0  0  0  0  0  0  0
   -9.2860    0.9951   -1.8072 H   0  0  0  0  0  0  0  0  0  0  0  0
  1  2  1  0
  2  3  1  0
  3  4  2  0
  4  5  1  0
  5  6  2  0
  6  7  1  0
  7  8  2  0
  8  9  1  0
  9 10  2  0
 10 11  1  0
 11 12  2  0
  9 13  1  0
 13 14  1  0
 14 15  2  0
 15 16  1  0
 16 17  1  0
 16 18  1  0
 18 19  1  0
 19 20  1  0
 20 21  1  0
 21 22  1  0
  2 23  1  0
 23 24  2  0
 23 25  2  0
 23 26  1  0
 26 27  2  0
 27 28  1  0
 28 29  1  0
 28 30  2  0
 30 31  1  0
 31 32  2  0
 32 33  1  0
 12  3  1  0
 17 13  2  0
 22 18  1  0
 32 26  1  0
 11  6  1  0
  1 34  1  0
  1 35  1  0
  1 36  1  0
  4 37  1  0
  5 38  1  0
  8 39  1  0
 10 40  1  0
 14 41  1  0
 17 42  1  0
 18 43  1  0
 19 44  1  0
 19 45  1  0
 20 46  1  0
 20 47  1  0
 21 48  1  0
 22 49  1  0
 22 50  1  0
 27 51  1  0
 30 52  1  0
 31 53  1  0
M  END
$$$$
[H]c1nc2c([H])c(OC([H])([H])C([H])([H])C([H])([H])N3C([H])([H])C([H])([H])N(C([H])([H])[H])C([H])([H])C3([H])[H])c(OC([H])([H])[H])c([H])c2c(Oc2c([H])c([H])c(N([H])C(=O)N([H])c3c([H])c(C([H])([H])[H])c(C([H])([H])[H])n3[H])c([H])c2F)c1[H]
     RDKit          3D

 79 83  0  0  0  0  0  0  0  0999 V2000
    3.1371    0.4055   -3.7627 C   0  0  0  0  0  0  0  0  0  0  0  0
    3.8138    0.7222   -2.5535 O   0  0  0  0  0  0  0  0  0  0  0  0
    3.1573    0.7551   -1.3392 C   0  0  0  0  0  0  0  0  0  0  0  0
    1.7916    0.5152   -1.2242 C   0  0  0  0  0  0  0  0  0  0  0  0
    1.1791    0.5446    0.0072 C   0  0  0  0  0  0  0  0  0  0  0  0
   -0.1839    0.3734    0.1547 C   0  0  0  0  0  0  0  0  0  0  0  0
   -0.9962    0.1144   -0.9948 O   0  0  0  0  0  0  0  0  0  0  0  0
   -2.3581    0.0511   -0.6574 C   0  0  0  0  0  0  0  0  0  0  0  0
   -3.0920    1.1778   -1.0124 C   0  0  0  0  0  0  0  0  0  0  0  0
   -4.4207    1.2429   -0.7062 C   0  0  0  0  0  0  0  0  0  0  0  0
   -5.0539    0.1689   -0.0357 C   0  0  0  0  0  0  0  0  0  0  0  0
   -6.2770    0.3628    0.4816 N   0  0  0  0  0  0  0  0  0  0  0  0
   -7.5559   -0.3487    0.1257 C   0  0  0  0  0  0  0  0  0  0  0  0
   -7.2603   -1.1791   -0.8474 O   0  0  0  0  0  0  0  0  0  0  0  0
   -8.6103   -0.1254    0.6542 N   0  0  0  0  0  0  0  0  0  0  0  0
  -10.0448    0.0969    0.8819 C   0  0  0  0  0  0  0  0  0  0  0  0
  -11.0525    0.0733   -0.0725 C   0  0  0  0  0  0  0  0  0  0  0  0
  -12.2503    0.2394    0.5686 C   0  0  0  0  0  0  0  0  0  0  0  0
  -13.6129    0.2494   -0.0280 C   0  0  0  0  0  0  0  0  0  0  0  0
  -12.0186    0.3752    1.9173 C   0  0  0  0  0  0  0  0  0  0  0  0
  -12.9660    0.6465    3.0291 C   0  0  0  0  0  0  0  0  0  0  0  0
  -10.6598    0.2781    2.0519 N   0  0  0  0  0  0  0  0  0  0  0  0
   -4.3017   -0.9441    0.2923 C   0  0  0  0  0  0  0  0  0  0  0  0
   -2.9289   -1.0063   -0.0237 C   0  0  0  0  0  0  0  0  0  0  0  0
   -2.2122   -2.1143    0.2748 F   0  0  0  0  0  0  0  0  0  0  0  0
   -0.7462    0.4694    1.4032 C   0  0  0  0  0  0  0  0  0  0  0  0
    0.0341    0.7378    2.5359 C   0  0  0  0  0  0  0  0  0  0  0  0
    1.3263    0.8982    2.3703 N   0  0  0  0  0  0  0  0  0  0  0  0
    1.9125    0.8102    1.1395 C   0  0  0  0  0  0  0  0  0  0  0  0
    3.2903    1.0586    1.0609 C   0  0  0  0  0  0  0  0  0  0  0  0
    3.8843    1.0275   -0.1923 C   0  0  0  0  0  0  0  0  0  0  0  0
    5.2110    1.2744   -0.3454 O   0  0  0  0  0  0  0  0  0  0  0  0
    6.2229    1.5738    0.5478 C   0  0  0  0  0  0  0  0  0  0  0  0
    7.4786    1.7884   -0.3573 C   0  0  0  0  0  0  0  0  0  0  0  0
    7.5554    0.4518   -1.1095 C   0  0  0  0  0  0  0  0  0  0  0  0
    7.7635   -0.5430   -0.0887 N   0  0  0  0  0  0  0  0  0  0  0  0
    9.0824   -0.4809    0.4764 C   0  0  0  0  0  0  0  0  0  0  0  0
    9.5583   -1.9042    0.7400 C   0  0  0  0  0  0  0  0  0  0  0  0
    9.6321   -2.6175   -0.5181 N   0  0  0  0  0  0  0  0  0  0  0  0
   10.7103   -1.9719   -1.2903 C   0  0  0  0  0  0  0  0  0  0  0  0
    8.3888   -2.5754   -1.2786 C   0  0  0  0  0  0  0  0  0  0  0  0
    7.3270   -1.8508   -0.4673 C   0  0  0  0  0  0  0  0  0  0  0  0
    2.4488   -0.4724   -3.5776 H   0  0  0  0  0  0  0  0  0  0  0  0
    3.8095    0.0594   -4.5702 H   0  0  0  0  0  0  0  0  0  0  0  0
    2.6018    1.3056   -4.1019 H   0  0  0  0  0  0  0  0  0  0  0  0
    1.2181    0.2976   -2.1090 H   0  0  0  0  0  0  0  0  0  0  0  0
   -2.6100    1.9915   -1.5271 H   0  0  0  0  0  0  0  0  0  0  0  0
   -5.0588    2.0776   -0.9417 H   0  0  0  0  0  0  0  0  0  0  0  0
   -6.4863    1.0866    1.2512 H   0  0  0  0  0  0  0  0  0  0  0  0
   -8.2827    0.7169    1.5941 H   0  0  0  0  0  0  0  0  0  0  0  0
  -10.8597   -0.0498   -1.1498 H   0  0  0  0  0  0  0  0  0  0  0  0
  -13.8915    1.3009   -0.2758 H   0  0  0  0  0  0  0  0  0  0  0  0
  -13.6278   -0.2963   -1.0238 H   0  0  0  0  0  0  0  0  0  0  0  0
  -14.3736   -0.2310    0.5967 H   0  0  0  0  0  0  0  0  0  0  0  0
  -13.9915    0.6968    2.5893 H   0  0  0  0  0  0  0  0  0  0  0  0
  -12.7227    1.7065    3.3351 H   0  0  0  0  0  0  0  0  0  0  0  0
  -12.8484   -0.0356    3.8693 H   0  0  0  0  0  0  0  0  0  0  0  0
  -10.2368    0.3492    3.0078 H   0  0  0  0  0  0  0  0  0  0  0  0
   -4.7113   -1.7942    0.7899 H   0  0  0  0  0  0  0  0  0  0  0  0
   -1.7940    0.3859    1.6055 H   0  0  0  0  0  0  0  0  0  0  0  0
   -0.4739    0.7926    3.4890 H   0  0  0  0  0  0  0  0  0  0  0  0
    3.8341    1.2692    1.9641 H   0  0  0  0  0  0  0  0  0  0  0  0
    6.0732    2.4993    1.1549 H   0  0  0  0  0  0  0  0  0  0  0  0
    6.3854    0.7438    1.2427 H   0  0  0  0  0  0  0  0  0  0  0  0
    7.2673    2.6179   -1.0537 H   0  0  0  0  0  0  0  0  0  0  0  0
    8.3855    1.8688    0.2463 H   0  0  0  0  0  0  0  0  0  0  0  0
    6.5491    0.3084   -1.5476 H   0  0  0  0  0  0  0  0  0  0  0  0
    8.2895    0.4363   -1.9032 H   0  0  0  0  0  0  0  0  0  0  0  0
    9.8035    0.0270   -0.1921 H   0  0  0  0  0  0  0  0  0  0  0  0
    9.0400    0.0114    1.4580 H   0  0  0  0  0  0  0  0  0  0  0  0
    8.8976   -2.3759    1.4486 H   0  0  0  0  0  0  0  0  0  0  0  0
   10.5965   -1.7986    1.1226 H   0  0  0  0  0  0  0  0  0  0  0  0
   11.2939   -2.7731   -1.7791 H   0  0  0  0  0  0  0  0  0  0  0  0
   11.3301   -1.3798   -0.5660 H   0  0  0  0  0  0  0  0  0  0  0  0
   10.2145   -1.2795   -2.0000 H   0  0  0  0  0  0  0  0  0  0  0  0
    8.4866   -2.0951   -2.2559 H   0  0  0  0  0  0  0  0  0  0  0  0
    8.0511   -3.6146   -1.4164 H   0  0  0  0  0  0  0  0  0  0  0  0
    6.4024   -1.8451   -1.0299 H   0  0  0  0  0  0  0  0  0  0  0  0
    7.1359   -2.4599    0.4477 H   0  0  0  0  0  0  0  0  0  0  0  0
  1  2  1  0
  2  3  1  0
  3  4  2  0
  4  5  1  0
  5  6  2  0
  6  7  1  0
  7  8  1  0
  8  9  2  0
  9 10  1  0
 10 11  2  0
 11 12  1  0
 12 13  1  0
 13 14  2  0
 13 15  1  0
 15 16  1  0
 16 17  2  0
 17 18  1  0
 18 19  1  0
 18 20  2  0
 20 21  1  0
 20 22  1  0
 11 23  1  0
 23 24  2  0
 24 25  1  0
  6 26  1  0
 26 27  2  0
 27 28  1  0
 28 29  2  0
 29 30  1  0
 30 31  2  0
 31 32  1  0
 32 33  1  0
 33 34  1  0
 34 35  1  0
 35 36  1  0
 36 37  1  0
 37 38  1  0
 38 39  1  0
 39 40  1  0
 39 41  1  0
 41 42  1  0
 31  3  1  0
 42 36  1  0
 29  5  1  0
 24  8  1  0
 22 16  1  0
  1 43  1  0
  1 44  1  0
  1 45  1  0
  4 46  1  0
  9 47  1  0
 10 48  1  0
 12 49  1  0
 15 50  1  0
 17 51  1  0
 19 52  1  0
 19 53  1  0
 19 54  1  0
 21 55  1  0
 21 56  1  0
 21 57  1  0
 22 58  1  0
 23 59  1  0
 26 60  1  0
 27 61  1  0
 30 62  1  0
 33 63  1  0
 33 64  1  0
 34 65  1  0
 34 66  1  0
 35 67  1  0
 35 68  1  0
 37 69  1  0
 37 70  1  0
 38 71  1  0
 38 72  1  0
 40 73  1  0
 40 74  1  0
 40 75  1  0
 41 76  1  0
 41 77  1  0
 42 78  1  0
 42 79  1  0
M  END
$$$$
[H]c1nc2c([H])c(OC([H])([H])C([H])([H])C([H])([H])N3C([H])([H])C([H])([H])C3([H])[H])c(OC([H])([H])[H])c([H])c2c(N([H])c2c([H])nc(N3C([H])([H])C([H])([H])N(C4([H])C([H])([H])C([H])([H])N(C([H])([H])[H])C([H])([H])C4([H])[H])C([H])([H])C3([H])[H])c([H])c2[H])c1C#N
     RDKit          3D

 84 89  0  0  0  0  0  0  0  0999 V2000
   11.6319    0.5955   -0.3202 C   0  0  0  0  0  0  0  0  0  0  0  0
   10.3460    0.5984    0.3086 N   0  0  0  0  0  0  0  0  0  0  0  0
    9.6316    1.8340    0.2428 C   0  0  0  0  0  0  0  0  0  0  0  0
    8.6638    1.9510   -0.9021 C   0  0  0  0  0  0  0  0  0  0  0  0
    7.5485    0.9446   -0.7321 C   0  0  0  0  0  0  0  0  0  0  0  0
    8.1077   -0.1506    0.1511 C   0  0  0  0  0  0  0  0  0  0  0  0
    9.5383   -0.4140   -0.3486 C   0  0  0  0  0  0  0  0  0  0  0  0
    6.3962    1.5903   -0.2144 N   0  0  0  0  0  0  0  0  0  0  0  0
    5.7747    0.9345    0.8883 C   0  0  0  0  0  0  0  0  0  0  0  0
    4.9065   -0.2163    0.3943 C   0  0  0  0  0  0  0  0  0  0  0  0
    3.7831    0.4715   -0.2887 N   0  0  0  0  0  0  0  0  0  0  0  0
    4.0100    1.6950   -0.9151 C   0  0  0  0  0  0  0  0  0  0  0  0
    5.4617    2.0470   -1.1716 C   0  0  0  0  0  0  0  0  0  0  0  0
    2.5609   -0.2106   -0.2384 C   0  0  0  0  0  0  0  0  0  0  0  0
    2.3148   -1.3574   -0.9886 C   0  0  0  0  0  0  0  0  0  0  0  0
    1.1551   -2.0532   -0.8230 C   0  0  0  0  0  0  0  0  0  0  0  0
    0.1740   -1.6432    0.1011 C   0  0  0  0  0  0  0  0  0  0  0  0
   -0.9681   -2.4562    0.2924 N   0  0  0  0  0  0  0  0  0  0  0  0
   -1.9015   -2.2500    1.3099 C   0  0  0  0  0  0  0  0  0  0  0  0
   -1.5927   -2.5541    2.6275 C   0  0  0  0  0  0  0  0  0  0  0  0
   -2.5925   -2.4631    3.5651 C   0  0  0  0  0  0  0  0  0  0  0  0
   -3.8503   -2.0877    3.2126 N   0  0  0  0  0  0  0  0  0  0  0  0
   -4.1581   -1.7918    1.9401 C   0  0  0  0  0  0  0  0  0  0  0  0
   -5.4571   -1.4695    1.5833 C   0  0  0  0  0  0  0  0  0  0  0  0
   -5.8460   -1.2100    0.2867 C   0  0  0  0  0  0  0  0  0  0  0  0
   -7.1171   -0.9074   -0.1330 O   0  0  0  0  0  0  0  0  0  0  0  0
   -8.2171   -0.8266    0.7114 C   0  0  0  0  0  0  0  0  0  0  0  0
   -9.4978   -0.6473   -0.0502 C   0  0  0  0  0  0  0  0  0  0  0  0
   -9.6790    0.5220   -0.8991 C   0  0  0  0  0  0  0  0  0  0  0  0
   -9.7892    1.8172   -0.4401 N   0  0  0  0  0  0  0  0  0  0  0  0
  -11.0381    2.1614    0.2706 C   0  0  0  0  0  0  0  0  0  0  0  0
  -10.2980    3.4383    0.6713 C   0  0  0  0  0  0  0  0  0  0  0  0
   -9.0843    2.4695    0.5669 C   0  0  0  0  0  0  0  0  0  0  0  0
   -4.8127   -1.2880   -0.6758 C   0  0  0  0  0  0  0  0  0  0  0  0
   -5.1743   -1.0179   -1.9884 O   0  0  0  0  0  0  0  0  0  0  0  0
   -4.2880   -1.0346   -3.0804 C   0  0  0  0  0  0  0  0  0  0  0  0
   -3.5258   -1.6045   -0.3562 C   0  0  0  0  0  0  0  0  0  0  0  0
   -3.1918   -1.8633    0.9582 C   0  0  0  0  0  0  0  0  0  0  0  0
   -0.2571   -2.9684    2.9629 C   0  0  0  0  0  0  0  0  0  0  0  0
    0.8218   -3.3295    3.2488 N   0  0  0  0  0  0  0  0  0  0  0  0
    0.4471   -0.5082    0.8151 C   0  0  0  0  0  0  0  0  0  0  0  0
    1.5829    0.1546    0.6386 N   0  0  0  0  0  0  0  0  0  0  0  0
   12.1894    1.4860    0.0025 H   0  0  0  0  0  0  0  0  0  0  0  0
   12.1789   -0.3247    0.0400 H   0  0  0  0  0  0  0  0  0  0  0  0
   11.5095    0.5539   -1.4272 H   0  0  0  0  0  0  0  0  0  0  0  0
    9.0531    1.9713    1.1694 H   0  0  0  0  0  0  0  0  0  0  0  0
   10.4082    2.6379    0.1973 H   0  0  0  0  0  0  0  0  0  0  0  0
    8.2968    3.0045   -0.9198 H   0  0  0  0  0  0  0  0  0  0  0  0
    9.1817    1.8020   -1.8878 H   0  0  0  0  0  0  0  0  0  0  0  0
    7.3330    0.4977   -1.7247 H   0  0  0  0  0  0  0  0  0  0  0  0
    7.6101   -1.1323    0.0329 H   0  0  0  0  0  0  0  0  0  0  0  0
    8.2270    0.1333    1.2011 H   0  0  0  0  0  0  0  0  0  0  0  0
    9.8374   -1.4376   -0.0198 H   0  0  0  0  0  0  0  0  0  0  0  0
    9.5934   -0.3923   -1.4434 H   0  0  0  0  0  0  0  0  0  0  0  0
    5.0300    1.6790    1.3119 H   0  0  0  0  0  0  0  0  0  0  0  0
    6.4066    0.6602    1.7137 H   0  0  0  0  0  0  0  0  0  0  0  0
    4.5640   -0.7680    1.2859 H   0  0  0  0  0  0  0  0  0  0  0  0
    5.3614   -0.8385   -0.3683 H   0  0  0  0  0  0  0  0  0  0  0  0
    3.4756    2.5532   -0.4174 H   0  0  0  0  0  0  0  0  0  0  0  0
    3.5322    1.6642   -1.9437 H   0  0  0  0  0  0  0  0  0  0  0  0
    5.5024    3.1807   -1.1396 H   0  0  0  0  0  0  0  0  0  0  0  0
    5.7771    1.8233   -2.2266 H   0  0  0  0  0  0  0  0  0  0  0  0
    3.0985   -1.6282   -1.6940 H   0  0  0  0  0  0  0  0  0  0  0  0
    0.9700   -2.9513   -1.4266 H   0  0  0  0  0  0  0  0  0  0  0  0
   -1.0978   -3.2694   -0.4079 H   0  0  0  0  0  0  0  0  0  0  0  0
   -2.3299   -2.7010    4.5824 H   0  0  0  0  0  0  0  0  0  0  0  0
   -6.2313   -1.4115    2.3574 H   0  0  0  0  0  0  0  0  0  0  0  0
   -8.0333   -0.0905    1.5084 H   0  0  0  0  0  0  0  0  0  0  0  0
   -8.2418   -1.8184    1.2722 H   0  0  0  0  0  0  0  0  0  0  0  0
   -9.5251   -1.5536   -0.7467 H   0  0  0  0  0  0  0  0  0  0  0  0
  -10.3951   -0.8711    0.6129 H   0  0  0  0  0  0  0  0  0  0  0  0
  -10.6348    0.3107   -1.5174 H   0  0  0  0  0  0  0  0  0  0  0  0
   -8.9001    0.4262   -1.7374 H   0  0  0  0  0  0  0  0  0  0  0  0
  -11.8847    2.3318   -0.4212 H   0  0  0  0  0  0  0  0  0  0  0  0
  -11.1935    1.4339    1.0775 H   0  0  0  0  0  0  0  0  0  0  0  0
  -10.5151    3.7767    1.6775 H   0  0  0  0  0  0  0  0  0  0  0  0
  -10.3546    4.1602   -0.1622 H   0  0  0  0  0  0  0  0  0  0  0  0
   -8.9789    2.0365    1.5804 H   0  0  0  0  0  0  0  0  0  0  0  0
   -8.2147    3.0768    0.2164 H   0  0  0  0  0  0  0  0  0  0  0  0
   -4.6509   -0.3509   -3.8886 H   0  0  0  0  0  0  0  0  0  0  0  0
   -3.2896   -0.6791   -2.7384 H   0  0  0  0  0  0  0  0  0  0  0  0
   -4.1885   -2.0628   -3.4983 H   0  0  0  0  0  0  0  0  0  0  0  0
   -2.7261   -1.6727   -1.0745 H   0  0  0  0  0  0  0  0  0  0  0  0
   -0.2705   -0.1479    1.5297 H   0  0  0  0  0  0  0  0  0  0  0  0
  1  2  1  0
  2  3  1  0
  3  4  1  0
  4  5  1  0
  5  6  1  0
  6  7  1  0
  5  8  1  0
  8  9  1  0
  9 10  1  0
 10 11  1  0
 11 12  1  0
 12 13  1  0
 11 14  1  0
 14 15  2  0
 15 16  1  0
 16 17  2  0
 17 18  1  0
 18 19  1  0
 19 20  2  0
 20 21  1  0
 21 22  2  0
 22 23  1  0
 23 24  2  0
 24 25  1  0
 25 26  1  0
 26 27  1  0
 27 28  1  0
 28 29  1  0
 29 30  1  0
 30 31  1  0
 31 32  1  0
 32 33  1  0
 25 34  2  0
 34 35  1  0
 35 36  1  0
 34 37  1  0
 37 38  2  0
 20 39  1  0
 39 40  3  0
 17 41  1  0
 41 42  2  0
  7  2  1  0
 13  8  1  0
 42 14  1  0
 38 19  1  0
 38 23  1  0
 33 30  1  0
  1 43  1  0
  1 44  1  0
  1 45  1  0
  3 46  1  0
  3 47  1  0
  4 48  1  0
  4 49  1  0
  5 50  1  0
  6 51  1  0
  6 52  1  0
  7 53  1  0
  7 54  1  0
  9 55  1  0
  9 56  1  0
 10 57  1  0
 10 58  1  0
 12 59  1  0
 12 60  1  0
 13 61  1  0
 13 62  1  0
 15 63  1  0
 16 64  1  0
 18 65  1  0
 21 66  1  0
 24 67  1  0
 27 68  1  0
 27 69  1  0
 28 70  1  0
 28 71  1  0
 29 72  1  0
 29 73  1  0
 31 74  1  0
 31 75  1  0
 32 76  1  0
 32 77  1  0
 33 78  1  0
 33 79  1  0
 36 80  1  0
 36 81  1  0
 36 82  1  0
 37 83  1  0
 41 84  1  0
M  END
$$$$
[H]c1nc(N([H])[H])c(-c2c([H])c([H])c([H])c(N([H])C(=O)c3c([H])c(C([H])([H])N4C([H])([H])C([H])([H])N(C([H])([H])[H])C([H])([H])C4([H])[H])c([H])c([H])c3Cl)c2[H])nc1-c1c([H])nn(C([H])([H])C([H])([H])[H])c1[H]
     RDKit          3D

 69 73  0  0  0  0  0  0  0  0999 V2000
   -9.8148    2.6619    4.2921 C   0  0  0  0  0  0  0  0  0  0  0  0
  -10.0398    1.3072    3.6867 C   0  0  0  0  0  0  0  0  0  0  0  0
   -8.8064    0.7217    3.1977 N   0  0  0  0  0  0  0  0  0  0  0  0
   -8.3266    0.8917    1.9303 C   0  0  0  0  0  0  0  0  0  0  0  0
   -7.1492    0.2096    1.7976 C   0  0  0  0  0  0  0  0  0  0  0  0
   -6.9253   -0.3835    3.0269 C   0  0  0  0  0  0  0  0  0  0  0  0
   -7.9510   -0.0416    3.8259 N   0  0  0  0  0  0  0  0  0  0  0  0
   -6.3039    0.1281    0.5991 C   0  0  0  0  0  0  0  0  0  0  0  0
   -6.6851    0.7927   -0.5462 C   0  0  0  0  0  0  0  0  0  0  0  0
   -5.9605    0.7617   -1.6767 N   0  0  0  0  0  0  0  0  0  0  0  0
   -4.8033    0.0351   -1.6648 C   0  0  0  0  0  0  0  0  0  0  0  0
   -4.0315   -0.0201   -2.8545 N   0  0  0  0  0  0  0  0  0  0  0  0
   -4.3983   -0.6353   -0.5424 C   0  0  0  0  0  0  0  0  0  0  0  0
   -5.1755   -0.5678    0.5777 N   0  0  0  0  0  0  0  0  0  0  0  0
   -3.1609   -1.4245   -0.5402 C   0  0  0  0  0  0  0  0  0  0  0  0
   -3.1625   -2.7257   -0.0492 C   0  0  0  0  0  0  0  0  0  0  0  0
   -2.0003   -3.4482   -0.0404 C   0  0  0  0  0  0  0  0  0  0  0  0
   -0.7851   -2.9475   -0.5048 C   0  0  0  0  0  0  0  0  0  0  0  0
   -0.7730   -1.6592   -0.9936 C   0  0  0  0  0  0  0  0  0  0  0  0
    0.3581   -1.0141   -1.5153 N   0  0  0  0  0  0  0  0  0  0  0  0
    1.5814   -1.5715   -1.9083 C   0  0  0  0  0  0  0  0  0  0  0  0
    1.7827   -2.8022   -1.8230 O   0  0  0  0  0  0  0  0  0  0  0  0
    2.6807   -0.7209   -2.4396 C   0  0  0  0  0  0  0  0  0  0  0  0
    3.6362   -0.1560   -1.6302 C   0  0  0  0  0  0  0  0  0  0  0  0
    4.6540    0.6322   -2.1217 C   0  0  0  0  0  0  0  0  0  0  0  0
    5.6916    1.2453   -1.2592 C   0  0  0  0  0  0  0  0  0  0  0  0
    5.8293    0.6828    0.0306 N   0  0  0  0  0  0  0  0  0  0  0  0
    6.2139   -0.6788    0.1251 C   0  0  0  0  0  0  0  0  0  0  0  0
    7.7470   -0.7296   -0.0051 C   0  0  0  0  0  0  0  0  0  0  0  0
    8.2511   -0.0600    1.1866 N   0  0  0  0  0  0  0  0  0  0  0  0
    9.6222   -0.3435    1.4608 C   0  0  0  0  0  0  0  0  0  0  0  0
    7.9201    1.3288    1.1061 C   0  0  0  0  0  0  0  0  0  0  0  0
    6.4430    1.5026    1.0119 C   0  0  0  0  0  0  0  0  0  0  0  0
    4.6773    0.8378   -3.4917 C   0  0  0  0  0  0  0  0  0  0  0  0
    3.7210    0.2732   -4.3060 C   0  0  0  0  0  0  0  0  0  0  0  0
    2.6904   -0.5262   -3.8004 C   0  0  0  0  0  0  0  0  0  0  0  0
    1.4964   -1.2241   -4.8739 Cl  0  0  0  0  0  0  0  0  0  0  0  0
   -1.9705   -0.9258   -0.9980 C   0  0  0  0  0  0  0  0  0  0  0  0
  -10.7779    3.2341    4.1835 H   0  0  0  0  0  0  0  0  0  0  0  0
   -9.0282    3.2443    3.7877 H   0  0  0  0  0  0  0  0  0  0  0  0
   -9.6086    2.5841    5.3882 H   0  0  0  0  0  0  0  0  0  0  0  0
  -10.7505    1.4268    2.8376 H   0  0  0  0  0  0  0  0  0  0  0  0
  -10.5281    0.6662    4.4517 H   0  0  0  0  0  0  0  0  0  0  0  0
   -8.8130    1.4789    1.1575 H   0  0  0  0  0  0  0  0  0  0  0  0
   -6.0927   -1.0063    3.3129 H   0  0  0  0  0  0  0  0  0  0  0  0
   -7.6268    1.3603   -0.4922 H   0  0  0  0  0  0  0  0  0  0  0  0
   -3.8238   -0.9495   -3.3203 H   0  0  0  0  0  0  0  0  0  0  0  0
   -3.6405    0.8071   -3.3213 H   0  0  0  0  0  0  0  0  0  0  0  0
   -4.0917   -3.1405    0.3179 H   0  0  0  0  0  0  0  0  0  0  0  0
   -1.9586   -4.4824    0.3399 H   0  0  0  0  0  0  0  0  0  0  0  0
    0.0977   -3.5549   -0.4659 H   0  0  0  0  0  0  0  0  0  0  0  0
    0.2957    0.0558   -1.6282 H   0  0  0  0  0  0  0  0  0  0  0  0
    3.5963   -0.3292   -0.5650 H   0  0  0  0  0  0  0  0  0  0  0  0
    5.5106    2.3318   -1.2343 H   0  0  0  0  0  0  0  0  0  0  0  0
    6.6583    1.1208   -1.8104 H   0  0  0  0  0  0  0  0  0  0  0  0
    5.7444   -1.3778   -0.5696 H   0  0  0  0  0  0  0  0  0  0  0  0
    6.0379   -0.9927    1.1983 H   0  0  0  0  0  0  0  0  0  0  0  0
    8.1033   -1.7563   -0.1118 H   0  0  0  0  0  0  0  0  0  0  0  0
    7.9838   -0.1465   -0.9247 H   0  0  0  0  0  0  0  0  0  0  0  0
    9.7545   -0.2986    2.5817 H   0  0  0  0  0  0  0  0  0  0  0  0
   10.3489    0.3322    1.0090 H   0  0  0  0  0  0  0  0  0  0  0  0
    9.8163   -1.4150    1.2068 H   0  0  0  0  0  0  0  0  0  0  0  0
    8.4245    1.8721    0.2899 H   0  0  0  0  0  0  0  0  0  0  0  0
    8.2442    1.7954    2.0823 H   0  0  0  0  0  0  0  0  0  0  0  0
    5.9286    1.3863    1.9900 H   0  0  0  0  0  0  0  0  0  0  0  0
    6.2387    2.5752    0.7173 H   0  0  0  0  0  0  0  0  0  0  0  0
    5.4603    1.4514   -3.9202 H   0  0  0  0  0  0  0  0  0  0  0  0
    3.7078    0.4136   -5.3902 H   0  0  0  0  0  0  0  0  0  0  0  0
   -1.9846    0.0891   -1.3682 H   0  0  0  0  0  0  0  0  0  0  0  0
  1  2  1  0
  2  3  1  0
  3  4  1  0
  4  5  2  0
  5  6  1  0
  6  7  2  0
  5  8  1  0
  8  9  2  0
  9 10  1  0
 10 11  2  0
 11 12  1  0
 11 13  1  0
 13 14  2  0
 13 15  1  0
 15 16  2  0
 16 17  1  0
 17 18  2  0
 18 19  1  0
 19 20  1  0
 20 21  1  0
 21 22  2  0
 21 23  1  0
 23 24  2  0
 24 25  1  0
 25 26  1  0
 26 27  1  0
 27 28  1  0
 28 29  1  0
 29 30  1  0
 30 31  1  0
 30 32  1  0
 32 33  1  0
 25 34  2  0
 34 35  1  0
 35 36  2  0
 36 37  1  0
 19 38  2  0
  7  3  1  0
 14  8  1  0
 38 15  1  0
 36 23  1  0
 33 27  1  0
  1 39  1  0
  1 40  1  0
  1 41  1  0
  2 42  1  0
  2 43  1  0
  4 44  1  0
  6 45  1  0
  9 46  1  0
 12 47  1  0
 12 48  1  0
 16 49  1  0
 17 50  1  0
 18 51  1  0
 20 52  1  0
 24 53  1  0
 26 54  1  0
 26 55  1  0
 28 56  1  0
 28 57  1  0
 29 58  1  0
 29 59  1  0
 31 60  1  0
 31 61  1  0
 31 62  1  0
 32 63  1  0
 32 64  1  0
 33 65  1  0
 33 66  1  0
 34 67  1  0
 35 68  1  0
 38 69  1  0
M  END
$$$$
[H]c1c([H])c(C([H])([H])N(C([H])([H])[H])C([H])([H])[H])c([H])c([H])c1N([H])c1nc([H])c2c(=O)c(C([H])(C([H])([H])[H])C([H])([H])[H])c([H])n(-c3c([H])c([H])c4c(c3[H])C([H])([H])C([H])([H])C4([H])[H])c2n1
     RDKit          3D

 65 69  0  0  0  0  0  0  0  0999 V2000
   -5.4228    3.9892    0.7122 C   0  0  0  0  0  0  0  0  0  0  0  0
   -3.9851    4.4309    0.5122 C   0  0  0  0  0  0  0  0  0  0  0  0
   -3.8408    5.3524   -0.6712 C   0  0  0  0  0  0  0  0  0  0  0  0
   -3.1106    3.2338    0.4081 C   0  0  0  0  0  0  0  0  0  0  0  0
   -3.5731    1.9407    0.4832 C   0  0  0  0  0  0  0  0  0  0  0  0
   -2.7874    0.8542    0.3896 N   0  0  0  0  0  0  0  0  0  0  0  0
   -3.3203   -0.4737    0.4745 C   0  0  0  0  0  0  0  0  0  0  0  0
   -3.1681   -1.2155    1.6295 C   0  0  0  0  0  0  0  0  0  0  0  0
   -3.6707   -2.4885    1.7310 C   0  0  0  0  0  0  0  0  0  0  0  0
   -4.3482   -3.0813    0.6860 C   0  0  0  0  0  0  0  0  0  0  0  0
   -4.9794   -4.4209    0.5409 C   0  0  0  0  0  0  0  0  0  0  0  0
   -5.9805   -4.1949   -0.5539 C   0  0  0  0  0  0  0  0  0  0  0  0
   -5.2617   -3.1976   -1.4411 C   0  0  0  0  0  0  0  0  0  0  0  0
   -4.5016   -2.3430   -0.4683 C   0  0  0  0  0  0  0  0  0  0  0  0
   -3.9948   -1.0635   -0.5661 C   0  0  0  0  0  0  0  0  0  0  0  0
   -1.4386    0.9765    0.2085 C   0  0  0  0  0  0  0  0  0  0  0  0
   -0.6608   -0.1143    0.1160 N   0  0  0  0  0  0  0  0  0  0  0  0
    0.6833    0.0904   -0.0653 C   0  0  0  0  0  0  0  0  0  0  0  0
    1.5605   -1.0059   -0.1501 N   0  0  0  0  0  0  0  0  0  0  0  0
    2.9494   -1.0224   -0.3457 C   0  0  0  0  0  0  0  0  0  0  0  0
    3.6594   -2.1713    0.0338 C   0  0  0  0  0  0  0  0  0  0  0  0
    5.0136   -2.2730   -0.1426 C   0  0  0  0  0  0  0  0  0  0  0  0
    5.7614   -1.2592   -0.7009 C   0  0  0  0  0  0  0  0  0  0  0  0
    7.2333   -1.3885   -0.8846 C   0  0  0  0  0  0  0  0  0  0  0  0
    7.9514   -0.9478    0.2999 N   0  0  0  0  0  0  0  0  0  0  0  0
    9.3835   -1.0765    0.1221 C   0  0  0  0  0  0  0  0  0  0  0  0
    7.6586    0.4405    0.6050 C   0  0  0  0  0  0  0  0  0  0  0  0
    5.0817   -0.1268   -1.0787 C   0  0  0  0  0  0  0  0  0  0  0  0
    3.7021   -0.0151   -0.9029 C   0  0  0  0  0  0  0  0  0  0  0  0
    1.1618    1.3358   -0.1421 N   0  0  0  0  0  0  0  0  0  0  0  0
    0.4340    2.4356   -0.0564 C   0  0  0  0  0  0  0  0  0  0  0  0
   -0.9349    2.2585    0.1280 C   0  0  0  0  0  0  0  0  0  0  0  0
   -1.7448    3.3738    0.2245 C   0  0  0  0  0  0  0  0  0  0  0  0
   -1.2751    4.5419    0.1497 O   0  0  0  0  0  0  0  0  0  0  0  0
   -5.7949    3.4181   -0.1643 H   0  0  0  0  0  0  0  0  0  0  0  0
   -6.0839    4.8391    0.9630 H   0  0  0  0  0  0  0  0  0  0  0  0
   -5.4082    3.3508    1.6437 H   0  0  0  0  0  0  0  0  0  0  0  0
   -3.6945    5.0180    1.4126 H   0  0  0  0  0  0  0  0  0  0  0  0
   -3.0816    6.1504   -0.5041 H   0  0  0  0  0  0  0  0  0  0  0  0
   -3.5710    4.8220   -1.5996 H   0  0  0  0  0  0  0  0  0  0  0  0
   -4.7936    5.9022   -0.8905 H   0  0  0  0  0  0  0  0  0  0  0  0
   -4.6331    1.7624    0.6263 H   0  0  0  0  0  0  0  0  0  0  0  0
   -2.6389   -0.7677    2.4615 H   0  0  0  0  0  0  0  0  0  0  0  0
   -3.5228   -3.0248    2.6592 H   0  0  0  0  0  0  0  0  0  0  0  0
   -4.2344   -5.1918    0.2355 H   0  0  0  0  0  0  0  0  0  0  0  0
   -5.4670   -4.7534    1.4677 H   0  0  0  0  0  0  0  0  0  0  0  0
   -6.9015   -3.7363   -0.1788 H   0  0  0  0  0  0  0  0  0  0  0  0
   -6.2452   -5.1208   -1.1014 H   0  0  0  0  0  0  0  0  0  0  0  0
   -5.9692   -2.5650   -1.9852 H   0  0  0  0  0  0  0  0  0  0  0  0
   -4.5650   -3.7636   -2.0921 H   0  0  0  0  0  0  0  0  0  0  0  0
   -4.1322   -0.5143   -1.4823 H   0  0  0  0  0  0  0  0  0  0  0  0
    1.0887   -1.9618   -0.0568 H   0  0  0  0  0  0  0  0  0  0  0  0
    3.0763   -2.9851    0.4810 H   0  0  0  0  0  0  0  0  0  0  0  0
    5.5454   -3.1743    0.1592 H   0  0  0  0  0  0  0  0  0  0  0  0
    7.4636   -2.4302   -1.1369 H   0  0  0  0  0  0  0  0  0  0  0  0
    7.5336   -0.7711   -1.7674 H   0  0  0  0  0  0  0  0  0  0  0  0
    9.8339   -0.1139   -0.2553 H   0  0  0  0  0  0  0  0  0  0  0  0
    9.6550   -1.9082   -0.5665 H   0  0  0  0  0  0  0  0  0  0  0  0
    9.8683   -1.3160    1.1031 H   0  0  0  0  0  0  0  0  0  0  0  0
    8.4121    0.8446    1.3225 H   0  0  0  0  0  0  0  0  0  0  0  0
    7.6678    1.0637   -0.3233 H   0  0  0  0  0  0  0  0  0  0  0  0
    6.6327    0.4955    1.0116 H   0  0  0  0  0  0  0  0  0  0  0  0
    5.6259    0.7072   -1.5270 H   0  0  0  0  0  0  0  0  0  0  0  0
    3.2528    0.9065   -1.2437 H   0  0  0  0  0  0  0  0  0  0  0  0
    0.8456    3.4433   -0.1217 H   0  0  0  0  0  0  0  0  0  0  0  0
  1  2  1  0
  2  3  1  0
  2  4  1  0
  4  5  2  0
  5  6  1  0
  6  7  1  0
  7  8  2  0
  8  9  1  0
  9 10  2  0
 10 11  1  0
 11 12  1  0
 12 13  1  0
 13 14  1  0
 14 15  2  0
  6 16  1  0
 16 17  2  0
 17 18  1  0
 18 19  1  0
 19 20  1  0
 20 21  2  0
 21 22  1  0
 22 23  2  0
 23 24  1  0
 24 25  1  0
 25 26  1  0
 25 27  1  0
 23 28  1  0
 28 29  2  0
 18 30  2  0
 30 31  1  0
 31 32  2  0
 32 33  1  0
 33 34  2  0
 33  4  1  0
 15  7  1  0
 32 16  1  0
 14 10  1  0
 29 20  1  0
  1 35  1  0
  1 36  1  0
  1 37  1  0
  2 38  1  0
  3 39  1  0
  3 40  1  0
  3 41  1  0
  5 42  1  0
  8 43  1  0
  9 44  1  0
 11 45  1  0
 11 46  1  0
 12 47  1  0
 12 48  1  0
 13 49  1  0
 13 50  1  0
 15 51  1  0
 19 52  1  0
 21 53  1  0
 22 54  1  0
 24 55  1  0
 24 56  1  0
 26 57  1  0
 26 58  1  0
 26 59  1  0
 27 60  1  0
 27 61  1  0
 27 62  1  0
 28 63  1  0
 29 64  1  0
 31 65  1  0
M  END
$$$$
[H]OC([H])([H])C([H])([H])n1c([H])c(C2=C(c3c([H])n(C([H])([H])C([H])([H])C([H])([H])S(=O)(=O)C([H])([H])[H])c4c([H])c([H])c([H])c([H])c34)C(=O)N([H])C2=O)c2c([H])c([H])c([H])c([H])c21
     RDKit          3D

 60 64  0  0  0  0  0  0  0  0999 V2000
    6.7183    0.6678    1.6308 C   0  0  0  0  0  0  0  0  0  0  0  0
    5.6877    1.9949    2.1278 S   0  0  0  0  0  0  0  0  0  0  0  0
    5.1411    1.6993    3.4861 O   0  0  0  0  0  0  0  0  0  0  0  0
    6.5523    3.2240    2.2668 O   0  0  0  0  0  0  0  0  0  0  0  0
    4.4117    2.2792    0.9375 C   0  0  0  0  0  0  0  0  0  0  0  0
    3.5771    1.0497    0.7747 C   0  0  0  0  0  0  0  0  0  0  0  0
    2.4365    1.2430   -0.2224 C   0  0  0  0  0  0  0  0  0  0  0  0
    1.6767   -0.0035   -0.3341 N   0  0  0  0  0  0  0  0  0  0  0  0
    0.6728   -0.3915    0.4596 C   0  0  0  0  0  0  0  0  0  0  0  0
    0.2417   -1.6472    0.0667 C   0  0  0  0  0  0  0  0  0  0  0  0
   -0.8391   -2.4349    0.6769 C   0  0  0  0  0  0  0  0  0  0  0  0
   -2.0655   -1.9842    0.8844 C   0  0  0  0  0  0  0  0  0  0  0  0
   -2.8213   -3.0868    1.5205 C   0  0  0  0  0  0  0  0  0  0  0  0
   -4.0226   -3.0424    1.8666 O   0  0  0  0  0  0  0  0  0  0  0  0
   -1.9692   -4.2071    1.6767 N   0  0  0  0  0  0  0  0  0  0  0  0
   -0.7072   -3.8207    1.1512 C   0  0  0  0  0  0  0  0  0  0  0  0
    0.3546   -4.5004    1.0829 O   0  0  0  0  0  0  0  0  0  0  0  0
   -2.6012   -0.6863    0.5016 C   0  0  0  0  0  0  0  0  0  0  0  0
   -2.5316   -0.1291   -0.7651 C   0  0  0  0  0  0  0  0  0  0  0  0
   -3.1421    1.0716   -0.7386 N   0  0  0  0  0  0  0  0  0  0  0  0
   -3.2946    1.9425   -1.8830 C   0  0  0  0  0  0  0  0  0  0  0  0
   -4.6069    1.4854   -2.5474 C   0  0  0  0  0  0  0  0  0  0  0  0
   -4.8245    2.2662   -3.6559 O   0  0  0  0  0  0  0  0  0  0  0  0
   -3.6144    1.3401    0.4956 C   0  0  0  0  0  0  0  0  0  0  0  0
   -4.2913    2.4200    1.0196 C   0  0  0  0  0  0  0  0  0  0  0  0
   -4.6324    2.3938    2.3513 C   0  0  0  0  0  0  0  0  0  0  0  0
   -4.2998    1.3118    3.1279 C   0  0  0  0  0  0  0  0  0  0  0  0
   -3.6239    0.2360    2.5963 C   0  0  0  0  0  0  0  0  0  0  0  0
   -3.2683    0.2270    1.2709 C   0  0  0  0  0  0  0  0  0  0  0  0
    1.0320   -1.9953   -1.0030 C   0  0  0  0  0  0  0  0  0  0  0  0
    1.0790   -3.1118   -1.8340 C   0  0  0  0  0  0  0  0  0  0  0  0
    1.9911   -3.1840   -2.8664 C   0  0  0  0  0  0  0  0  0  0  0  0
    2.9004   -2.1591   -3.1280 C   0  0  0  0  0  0  0  0  0  0  0  0
    2.8347   -1.0694   -2.2963 C   0  0  0  0  0  0  0  0  0  0  0  0
    1.9315   -0.9738   -1.2594 C   0  0  0  0  0  0  0  0  0  0  0  0
    6.1367   -0.0126    0.9746 H   0  0  0  0  0  0  0  0  0  0  0  0
    7.0184    0.0263    2.5095 H   0  0  0  0  0  0  0  0  0  0  0  0
    7.6443    0.9906    1.0973 H   0  0  0  0  0  0  0  0  0  0  0  0
    4.9344    2.4799   -0.0312 H   0  0  0  0  0  0  0  0  0  0  0  0
    3.8258    3.1924    1.1547 H   0  0  0  0  0  0  0  0  0  0  0  0
    4.2262    0.2370    0.3516 H   0  0  0  0  0  0  0  0  0  0  0  0
    3.1742    0.7155    1.7490 H   0  0  0  0  0  0  0  0  0  0  0  0
    1.7525    2.0550    0.0938 H   0  0  0  0  0  0  0  0  0  0  0  0
    2.8272    1.4785   -1.2209 H   0  0  0  0  0  0  0  0  0  0  0  0
    0.2585    0.1675    1.2638 H   0  0  0  0  0  0  0  0  0  0  0  0
   -2.2050   -5.1528    2.0983 H   0  0  0  0  0  0  0  0  0  0  0  0
   -2.0613   -0.5888   -1.6386 H   0  0  0  0  0  0  0  0  0  0  0  0
   -2.4585    1.8921   -2.5864 H   0  0  0  0  0  0  0  0  0  0  0  0
   -3.4280    2.9910   -1.5379 H   0  0  0  0  0  0  0  0  0  0  0  0
   -4.4980    0.3917   -2.8075 H   0  0  0  0  0  0  0  0  0  0  0  0
   -5.4086    1.5359   -1.7887 H   0  0  0  0  0  0  0  0  0  0  0  0
   -5.7831    2.4790   -3.7727 H   0  0  0  0  0  0  0  0  0  0  0  0
   -4.5465    3.2628    0.3937 H   0  0  0  0  0  0  0  0  0  0  0  0
   -5.1743    3.2349    2.8180 H   0  0  0  0  0  0  0  0  0  0  0  0
   -4.5643    1.2890    4.1843 H   0  0  0  0  0  0  0  0  0  0  0  0
   -3.3452   -0.6242    3.2027 H   0  0  0  0  0  0  0  0  0  0  0  0
    0.3993   -3.9382   -1.6936 H   0  0  0  0  0  0  0  0  0  0  0  0
    2.0550   -4.0357   -3.5333 H   0  0  0  0  0  0  0  0  0  0  0  0
    3.6102   -2.2297   -3.9417 H   0  0  0  0  0  0  0  0  0  0  0  0
    3.5265   -0.2623   -2.4771 H   0  0  0  0  0  0  0  0  0  0  0  0
  1  2  1  0
  2  3  2  0
  2  4  2  0
  2  5  1  0
  5  6  1  0
  6  7  1  0
  7  8  1  0
  8  9  1  0
  9 10  2  0
 10 11  1  0
 11 12  2  0
 12 13  1  0
 13 14  2  0
 13 15  1  0
 15 16  1  0
 16 17  2  0
 12 18  1  0
 18 19  2  0
 19 20  1  0
 20 21  1  0
 21 22  1  0
 22 23  1  0
 20 24  1  0
 24 25  2  0
 25 26  1  0
 26 27  2  0
 27 28  1  0
 28 29  2  0
 10 30  1  0
 30 31  2  0
 31 32  1  0
 32 33  2  0
 33 34  1  0
 34 35  2  0
 35  8  1  0
 16 11  1  0
 29 18  1  0
 35 30  1  0
 29 24  1  0
  1 36  1  0
  1 37  1  0
  1 38  1  0
  5 39  1  0
  5 40  1  0
  6 41  1  0
  6 42  1  0
  7 43  1  0
  7 44  1  0
  9 45  1  0
 15 46  1  0
 19 47  1  0
 21 48  1  0
 21 49  1  0
 22 50  1  0
 22 51  1  0
 23 52  1  0
 25 53  1  0
 26 54  1  0
 27 55  1  0
 28 56  1  0
 31 57  1  0
 32 58  1  0
 33 59  1  0
 34 60  1  0
M  END
$$$$
[H]c1nc(N([H])c2c([H])c([H])c(N3C([H])([H])C([H])([H])N([H])C([H])([H])C3([H])[H])c([H])c2[H])nc(N([H])c2c([H])c(Br)c([H])c([H])c2C([H])([H])[H])c1[H]
     RDKit          3D

 51 54  0  0  0  0  0  0  0  0999 V2000
   -6.9467   -1.8001    1.1114 C   0  0  0  0  0  0  0  0  0  0  0  0
   -7.1043   -0.4694    0.4847 C   0  0  0  0  0  0  0  0  0  0  0  0
   -8.3765    0.0010    0.2586 C   0  0  0  0  0  0  0  0  0  0  0  0
   -8.5958    1.2148   -0.3132 C   0  0  0  0  0  0  0  0  0  0  0  0
   -7.5242    1.9708   -0.6658 C   0  0  0  0  0  0  0  0  0  0  0  0
   -7.8328    3.6708   -1.4668 Br  0  0  0  0  0  0  0  0  0  0  0  0
   -6.2236    1.4909   -0.4362 C   0  0  0  0  0  0  0  0  0  0  0  0
   -5.9673    0.2906    0.1315 C   0  0  0  0  0  0  0  0  0  0  0  0
   -4.7325   -0.2683    0.3275 N   0  0  0  0  0  0  0  0  0  0  0  0
   -3.4263    0.2737    0.4099 C   0  0  0  0  0  0  0  0  0  0  0  0
   -3.1852    1.6185    0.5144 C   0  0  0  0  0  0  0  0  0  0  0  0
   -1.8586    2.0807    0.5314 C   0  0  0  0  0  0  0  0  0  0  0  0
   -0.8694    1.2041    0.4477 N   0  0  0  0  0  0  0  0  0  0  0  0
   -1.0485   -0.1188    0.3459 C   0  0  0  0  0  0  0  0  0  0  0  0
   -0.0073   -1.0744    0.2556 N   0  0  0  0  0  0  0  0  0  0  0  0
    1.3469   -0.8246    0.2703 C   0  0  0  0  0  0  0  0  0  0  0  0
    1.9480    0.2970    0.7682 C   0  0  0  0  0  0  0  0  0  0  0  0
    3.3447    0.4721    0.7120 C   0  0  0  0  0  0  0  0  0  0  0  0
    4.1174   -0.5094    0.1436 C   0  0  0  0  0  0  0  0  0  0  0  0
    3.5289   -1.6368   -0.3577 C   0  0  0  0  0  0  0  0  0  0  0  0
    2.1719   -1.8151   -0.3075 C   0  0  0  0  0  0  0  0  0  0  0  0
    5.5183   -0.3494    0.0788 N   0  0  0  0  0  0  0  0  0  0  0  0
    6.1015    0.8660    0.6087 C   0  0  0  0  0  0  0  0  0  0  0  0
    7.5414    1.0499    0.2748 C   0  0  0  0  0  0  0  0  0  0  0  0
    7.9452    0.2817   -0.8624 N   0  0  0  0  0  0  0  0  0  0  0  0
    7.7686   -1.1310   -0.5565 C   0  0  0  0  0  0  0  0  0  0  0  0
    6.3044   -1.4175   -0.5177 C   0  0  0  0  0  0  0  0  0  0  0  0
   -2.3430   -0.5169    0.3326 N   0  0  0  0  0  0  0  0  0  0  0  0
   -6.3855   -2.5105    0.4703 H   0  0  0  0  0  0  0  0  0  0  0  0
   -6.4418   -1.7412    2.0954 H   0  0  0  0  0  0  0  0  0  0  0  0
   -7.9493   -2.2426    1.2506 H   0  0  0  0  0  0  0  0  0  0  0  0
   -9.2646   -0.5828    0.5300 H   0  0  0  0  0  0  0  0  0  0  0  0
   -9.6166    1.5652   -0.4811 H   0  0  0  0  0  0  0  0  0  0  0  0
   -5.4638    2.1442   -0.7886 H   0  0  0  0  0  0  0  0  0  0  0  0
   -4.7008   -1.3644    0.4518 H   0  0  0  0  0  0  0  0  0  0  0  0
   -3.9303    2.3636    0.6243 H   0  0  0  0  0  0  0  0  0  0  0  0
   -1.6275    3.1342    0.6111 H   0  0  0  0  0  0  0  0  0  0  0  0
   -0.3461   -2.0854    0.1723 H   0  0  0  0  0  0  0  0  0  0  0  0
    1.3768    1.0821    1.2378 H   0  0  0  0  0  0  0  0  0  0  0  0
    3.7699    1.3766    1.1192 H   0  0  0  0  0  0  0  0  0  0  0  0
    4.1292   -2.4254   -0.8119 H   0  0  0  0  0  0  0  0  0  0  0  0
    1.7173   -2.7127   -0.7084 H   0  0  0  0  0  0  0  0  0  0  0  0
    5.9383    0.8861    1.7054 H   0  0  0  0  0  0  0  0  0  0  0  0
    5.5229    1.7149    0.1397 H   0  0  0  0  0  0  0  0  0  0  0  0
    7.7520    2.1345    0.0631 H   0  0  0  0  0  0  0  0  0  0  0  0
    8.1558    0.8195    1.1801 H   0  0  0  0  0  0  0  0  0  0  0  0
    7.3814    0.5711   -1.6723 H   0  0  0  0  0  0  0  0  0  0  0  0
    8.1851   -1.3216    0.4510 H   0  0  0  0  0  0  0  0  0  0  0  0
    8.2422   -1.7324   -1.3511 H   0  0  0  0  0  0  0  0  0  0  0  0
    5.9072   -1.5833   -1.5614 H   0  0  0  0  0  0  0  0  0  0  0  0
    6.0529   -2.3404    0.0342 H   0  0  0  0  0  0  0  0  0  0  0  0
  1  2  1  0
  2  3  2  0
  3  4  1  0
  4  5  2  0
  5  6  1  0
  5  7  1  0
  7  8  2  0
  8  9  1  0
  9 10  1  0
 10 11  2  0
 11 12  1  0
 12 13  2  0
 13 14  1  0
 14 15  1  0
 15 16  1  0
 16 17  2  0
 17 18  1  0
 18 19  2  0
 19 20  1  0
 20 21  2  0
 19 22  1  0
 22 23  1  0
 23 24  1  0
 24 25  1  0
 25 26  1  0
 26 27  1  0
 14 28  2  0
  8  2  1  0
 28 10  1  0
 21 16  1  0
 27 22  1  0
  1 29  1  0
  1 30  1  0
  1 31  1  0
  3 32  1  0
  4 33  1  0
  7 34  1  0
  9 35  1  0
 11 36  1  0
 12 37  1  0
 15 38  1  0
 17 39  1  0
 18 40  1  0
 20 41  1  0
 21 42  1  0
 23 43  1  0
 23 44  1  0
 24 45  1  0
 24 46  1  0
 25 47  1  0
 26 48  1  0
 26 49  1  0
 27 50  1  0
 27 51  1  0
M  END
$$$$
[H]c1c(-c2c([H])c(C(=O)N([H])c3c([H])c([H])c(F)c(S(=O)(=O)C([H])([H])[H])c3[H])c([H])c([H])c2C([H])([H])[H])nc(N2C([H])([H])C([H])([H])C(F)(F)C([H])([H])C2([H])[H])nc1N([H])C([H])([H])C(F)(F)F
     RDKit          3D

 66 69  0  0  0  0  0  0  0  0999 V2000
   -1.2102    2.8288   -1.3258 C   0  0  0  0  0  0  0  0  0  0  0  0
   -0.0714    1.9370   -1.1030 C   0  0  0  0  0  0  0  0  0  0  0  0
    1.2409    2.3791   -1.3306 C   0  0  0  0  0  0  0  0  0  0  0  0
    2.3259    1.5473   -1.1242 C   0  0  0  0  0  0  0  0  0  0  0  0
    2.1619    0.2604   -0.6898 C   0  0  0  0  0  0  0  0  0  0  0  0
    0.8684   -0.1783   -0.4646 C   0  0  0  0  0  0  0  0  0  0  0  0
   -0.2421    0.6467   -0.6671 C   0  0  0  0  0  0  0  0  0  0  0  0
   -1.5765    0.1224   -0.4089 C   0  0  0  0  0  0  0  0  0  0  0  0
   -1.7634   -1.1680    0.0342 C   0  0  0  0  0  0  0  0  0  0  0  0
   -3.0647   -1.6488    0.2773 C   0  0  0  0  0  0  0  0  0  0  0  0
   -3.2441   -2.9759    0.7320 N   0  0  0  0  0  0  0  0  0  0  0  0
   -4.5697   -3.4750    0.9841 C   0  0  0  0  0  0  0  0  0  0  0  0
   -4.5287   -4.9128    1.4610 C   0  0  0  0  0  0  0  0  0  0  0  0
   -3.9481   -5.7542    0.5410 F   0  0  0  0  0  0  0  0  0  0  0  0
   -3.7259   -4.9297    2.5881 F   0  0  0  0  0  0  0  0  0  0  0  0
   -5.7747   -5.3428    1.8433 F   0  0  0  0  0  0  0  0  0  0  0  0
   -4.1066   -0.8374    0.0723 N   0  0  0  0  0  0  0  0  0  0  0  0
   -3.9414    0.4263   -0.3604 C   0  0  0  0  0  0  0  0  0  0  0  0
   -2.6951    0.8241   -0.5724 N   0  0  0  0  0  0  0  0  0  0  0  0
   -5.0971    1.2307   -0.5547 N   0  0  0  0  0  0  0  0  0  0  0  0
   -6.4251    0.6650   -0.2742 C   0  0  0  0  0  0  0  0  0  0  0  0
   -6.9870    1.4407    0.9022 C   0  0  0  0  0  0  0  0  0  0  0  0
   -6.9504    2.9058    0.5948 C   0  0  0  0  0  0  0  0  0  0  0  0
   -8.2228    3.4334    0.6785 F   0  0  0  0  0  0  0  0  0  0  0  0
   -6.1725    3.5737    1.5390 F   0  0  0  0  0  0  0  0  0  0  0  0
   -6.4340    3.1861   -0.8050 C   0  0  0  0  0  0  0  0  0  0  0  0
   -5.0605    2.5859   -1.0151 C   0  0  0  0  0  0  0  0  0  0  0  0
    3.3038   -0.6640   -0.4496 C   0  0  0  0  0  0  0  0  0  0  0  0
    3.0274   -1.8913   -0.2806 O   0  0  0  0  0  0  0  0  0  0  0  0
    4.6114   -0.2238   -0.4085 N   0  0  0  0  0  0  0  0  0  0  0  0
    5.7524   -1.0269   -0.1975 C   0  0  0  0  0  0  0  0  0  0  0  0
    5.8182   -2.3876   -0.3906 C   0  0  0  0  0  0  0  0  0  0  0  0
    7.0068   -3.0630   -0.1180 C   0  0  0  0  0  0  0  0  0  0  0  0
    8.1370   -2.4238    0.3421 C   0  0  0  0  0  0  0  0  0  0  0  0
    9.2804   -3.1175    0.5977 F   0  0  0  0  0  0  0  0  0  0  0  0
    8.0979   -1.0617    0.5431 C   0  0  0  0  0  0  0  0  0  0  0  0
    6.9337   -0.4081    0.2753 C   0  0  0  0  0  0  0  0  0  0  0  0
    9.5203   -0.2299    1.1275 S   0  0  0  0  0  0  0  0  0  0  0  0
    9.1769    1.5063    1.2930 C   0  0  0  0  0  0  0  0  0  0  0  0
   10.0082   -0.8176    2.3964 O   0  0  0  0  0  0  0  0  0  0  0  0
   10.5858   -0.3649    0.0681 O   0  0  0  0  0  0  0  0  0  0  0  0
   -1.7578    3.1440   -0.4134 H   0  0  0  0  0  0  0  0  0  0  0  0
   -0.7728    3.8258   -1.6841 H   0  0  0  0  0  0  0  0  0  0  0  0
   -1.8649    2.5555   -2.1837 H   0  0  0  0  0  0  0  0  0  0  0  0
    1.3626    3.4054   -1.6762 H   0  0  0  0  0  0  0  0  0  0  0  0
    3.3179    1.9241   -1.3129 H   0  0  0  0  0  0  0  0  0  0  0  0
    0.7746   -1.1972   -0.1227 H   0  0  0  0  0  0  0  0  0  0  0  0
   -0.9367   -1.8373    0.2057 H   0  0  0  0  0  0  0  0  0  0  0  0
   -2.4263   -3.5745    0.8792 H   0  0  0  0  0  0  0  0  0  0  0  0
   -5.0156   -2.8733    1.7848 H   0  0  0  0  0  0  0  0  0  0  0  0
   -5.2064   -3.4756    0.0664 H   0  0  0  0  0  0  0  0  0  0  0  0
   -6.3111   -0.4049   -0.0025 H   0  0  0  0  0  0  0  0  0  0  0  0
   -7.1023    0.7580   -1.1257 H   0  0  0  0  0  0  0  0  0  0  0  0
   -6.3827    1.1572    1.7905 H   0  0  0  0  0  0  0  0  0  0  0  0
   -8.0424    1.0956    1.0605 H   0  0  0  0  0  0  0  0  0  0  0  0
   -7.1296    2.7579   -1.5257 H   0  0  0  0  0  0  0  0  0  0  0  0
   -6.3725    4.2970   -0.9111 H   0  0  0  0  0  0  0  0  0  0  0  0
   -4.8529    2.5853   -2.1045 H   0  0  0  0  0  0  0  0  0  0  0  0
   -4.2651    3.1958   -0.5391 H   0  0  0  0  0  0  0  0  0  0  0  0
    4.7842    0.8125   -0.5483 H   0  0  0  0  0  0  0  0  0  0  0  0
    4.9702   -2.9438   -0.7649 H   0  0  0  0  0  0  0  0  0  0  0  0
    7.0433   -4.1319   -0.2738 H   0  0  0  0  0  0  0  0  0  0  0  0
    6.8873    0.6666    0.4299 H   0  0  0  0  0  0  0  0  0  0  0  0
    8.6266    1.8992    0.4158 H   0  0  0  0  0  0  0  0  0  0  0  0
   10.1095    2.0647    1.4683 H   0  0  0  0  0  0  0  0  0  0  0  0
    8.5176    1.6973    2.1841 H   0  0  0  0  0  0  0  0  0  0  0  0
  1  2  1  0
  2  3  2  0
  3  4  1  0
  4  5  2  0
  5  6  1  0
  6  7  2  0
  7  8  1  0
  8  9  2  0
  9 10  1  0
 10 11  1  0
 11 12  1  0
 12 13  1  0
 13 14  1  0
 13 15  1  0
 13 16  1  0
 10 17  2  0
 17 18  1  0
 18 19  2  0
 18 20  1  0
 20 21  1  0
 21 22  1  0
 22 23  1  0
 23 24  1  0
 23 25  1  0
 23 26  1  0
 26 27  1  0
  5 28  1  0
 28 29  2  0
 28 30  1  0
 30 31  1  0
 31 32  2  0
 32 33  1  0
 33 34  2  0
 34 35  1  0
 34 36  1  0
 36 37  2  0
 36 38  1  0
 38 39  1  0
 38 40  2  0
 38 41  2  0
  7  2  1  0
 19  8  1  0
 27 20  1  0
 37 31  1  0
  1 42  1  0
  1 43  1  0
  1 44  1  0
  3 45  1  0
  4 46  1  0
  6 47  1  0
  9 48  1  0
 11 49  1  0
 12 50  1  0
 12 51  1  0
 21 52  1  0
 21 53  1  0
 22 54  1  0
 22 55  1  0
 26 56  1  0
 26 57  1  0
 27 58  1  0
 27 59  1  0
 30 60  1  0
 32 61  1  0
 33 62  1  0
 37 63  1  0
 39 64  1  0
 39 65  1  0
 39 66  1  0
M  END
$$$$
[H]OC([H])([H])C(=O)N1C([H])([H])C([H])([H])C([H])(c2c([H])nn3c([H])c(-c4c([H])c([H])c(C([H])([H])[H])c(N([H])C(=O)c5c([H])c([H])c([H])c([H])c5[H])c4[H])c([H])nc23)C([H])([H])C1([H])[H]
     RDKit          3D

 62 66  0  0  0  0  0  0  0  0999 V2000
    5.8806   -2.4201    2.2175 C   0  0  0  0  0  0  0  0  0  0  0  0
    4.4935   -2.2305    1.7154 C   0  0  0  0  0  0  0  0  0  0  0  0
    3.5186   -3.1733    1.8920 C   0  0  0  0  0  0  0  0  0  0  0  0
    2.2388   -2.9789    1.4186 C   0  0  0  0  0  0  0  0  0  0  0  0
    1.8741   -1.8375    0.7485 C   0  0  0  0  0  0  0  0  0  0  0  0
    2.8694   -0.8692    0.5655 C   0  0  0  0  0  0  0  0  0  0  0  0
    4.1535   -1.0461    1.0320 C   0  0  0  0  0  0  0  0  0  0  0  0
    5.2110   -0.1218    0.8887 N   0  0  0  0  0  0  0  0  0  0  0  0
    5.0842    1.1331    0.2772 C   0  0  0  0  0  0  0  0  0  0  0  0
    4.0551    1.6088   -0.2134 O   0  0  0  0  0  0  0  0  0  0  0  0
    6.2809    2.0383    0.1776 C   0  0  0  0  0  0  0  0  0  0  0  0
    6.1185    3.3890    0.0711 C   0  0  0  0  0  0  0  0  0  0  0  0
    7.1931    4.2216   -0.0256 C   0  0  0  0  0  0  0  0  0  0  0  0
    8.4582    3.6778   -0.0145 C   0  0  0  0  0  0  0  0  0  0  0  0
    8.6769    2.3370    0.0893 C   0  0  0  0  0  0  0  0  0  0  0  0
    7.5513    1.5209    0.1860 C   0  0  0  0  0  0  0  0  0  0  0  0
    0.5182   -1.6518    0.2566 C   0  0  0  0  0  0  0  0  0  0  0  0
   -0.5810   -2.1721    0.9026 C   0  0  0  0  0  0  0  0  0  0  0  0
   -1.8284   -2.0087    0.4376 N   0  0  0  0  0  0  0  0  0  0  0  0
   -2.0223   -1.3100   -0.7057 C   0  0  0  0  0  0  0  0  0  0  0  0
   -3.1995   -1.0141   -1.3829 C   0  0  0  0  0  0  0  0  0  0  0  0
   -2.8174   -0.2850   -2.4861 C   0  0  0  0  0  0  0  0  0  0  0  0
   -1.4982   -0.1819   -2.4239 N   0  0  0  0  0  0  0  0  0  0  0  0
   -0.9812   -0.7820   -1.3731 N   0  0  0  0  0  0  0  0  0  0  0  0
    0.2881   -0.9428   -0.9079 C   0  0  0  0  0  0  0  0  0  0  0  0
   -4.5436   -1.4432   -0.9153 C   0  0  0  0  0  0  0  0  0  0  0  0
   -5.6151   -1.1606   -1.9294 C   0  0  0  0  0  0  0  0  0  0  0  0
   -6.2738    0.1605   -1.7693 C   0  0  0  0  0  0  0  0  0  0  0  0
   -6.6607    0.4663   -0.4046 N   0  0  0  0  0  0  0  0  0  0  0  0
   -6.2315   -0.4142    0.6310 C   0  0  0  0  0  0  0  0  0  0  0  0
   -4.8218   -0.8282    0.4288 C   0  0  0  0  0  0  0  0  0  0  0  0
   -7.4573    1.6331   -0.1665 C   0  0  0  0  0  0  0  0  0  0  0  0
   -7.8027    1.9225    1.0034 O   0  0  0  0  0  0  0  0  0  0  0  0
   -7.8846    2.5098   -1.2790 C   0  0  0  0  0  0  0  0  0  0  0  0
   -8.6438    3.5619   -0.8143 O   0  0  0  0  0  0  0  0  0  0  0  0
    5.9933   -3.3658    2.7730 H   0  0  0  0  0  0  0  0  0  0  0  0
    6.1635   -1.5987    2.9005 H   0  0  0  0  0  0  0  0  0  0  0  0
    6.5790   -2.4596    1.3546 H   0  0  0  0  0  0  0  0  0  0  0  0
    3.7494   -4.1093    2.4211 H   0  0  0  0  0  0  0  0  0  0  0  0
    1.4524   -3.7365    1.5593 H   0  0  0  0  0  0  0  0  0  0  0  0
    2.5714    0.0048    0.0448 H   0  0  0  0  0  0  0  0  0  0  0  0
    6.1769   -0.3552    1.2583 H   0  0  0  0  0  0  0  0  0  0  0  0
    5.1271    3.8004    0.0637 H   0  0  0  0  0  0  0  0  0  0  0  0
    7.0895    5.3179   -0.1117 H   0  0  0  0  0  0  0  0  0  0  0  0
    9.3439    4.3209   -0.0900 H   0  0  0  0  0  0  0  0  0  0  0  0
    9.6458    1.8656    0.1021 H   0  0  0  0  0  0  0  0  0  0  0  0
    7.6985    0.4498    0.2650 H   0  0  0  0  0  0  0  0  0  0  0  0
   -0.4589   -2.7347    1.8166 H   0  0  0  0  0  0  0  0  0  0  0  0
   -3.5318    0.0916   -3.2139 H   0  0  0  0  0  0  0  0  0  0  0  0
    1.0709   -0.4948   -1.4906 H   0  0  0  0  0  0  0  0  0  0  0  0
   -4.4974   -2.5415   -0.7741 H   0  0  0  0  0  0  0  0  0  0  0  0
   -6.3308   -2.0146   -1.9747 H   0  0  0  0  0  0  0  0  0  0  0  0
   -5.1083   -1.1673   -2.9319 H   0  0  0  0  0  0  0  0  0  0  0  0
   -5.7301    0.9995   -2.2369 H   0  0  0  0  0  0  0  0  0  0  0  0
   -7.2483    0.1040   -2.3395 H   0  0  0  0  0  0  0  0  0  0  0  0
   -6.8668   -1.3130    0.7617 H   0  0  0  0  0  0  0  0  0  0  0  0
   -6.2998    0.1429    1.6055 H   0  0  0  0  0  0  0  0  0  0  0  0
   -4.5582   -1.5416    1.2588 H   0  0  0  0  0  0  0  0  0  0  0  0
   -4.1612    0.0509    0.5699 H   0  0  0  0  0  0  0  0  0  0  0  0
   -6.9548    2.9255   -1.7644 H   0  0  0  0  0  0  0  0  0  0  0  0
   -8.4166    1.9148   -2.0498 H   0  0  0  0  0  0  0  0  0  0  0  0
   -8.0999    4.1352   -0.2380 H   0  0  0  0  0  0  0  0  0  0  0  0
  1  2  1  0
  2  3  2  0
  3  4  1  0
  4  5  2  0
  5  6  1  0
  6  7  2  0
  7  8  1  0
  8  9  1  0
  9 10  2  0
  9 11  1  0
 11 12  2  0
 12 13  1  0
 13 14  2  0
 14 15  1  0
 15 16  2  0
  5 17  1  0
 17 18  1  0
 18 19  2  0
 19 20  1  0
 20 21  2  0
 21 22  1  0
 22 23  2  0
 23 24  1  0
 24 25  1  0
 21 26  1  0
 26 27  1  0
 27 28  1  0
 28 29  1  0
 29 30  1  0
 30 31  1  0
 29 32  1  0
 32 33  2  0
 32 34  1  0
 34 35  1  0
  7  2  1  0
 16 11  1  0
 25 17  2  0
 31 26  1  0
 24 20  1  0
  1 36  1  0
  1 37  1  0
  1 38  1  0
  3 39  1  0
  4 40  1  0
  6 41  1  0
  8 42  1  0
 12 43  1  0
 13 44  1  0
 14 45  1  0
 15 46  1  0
 16 47  1  0
 18 48  1  0
 22 49  1  0
 25 50  1  0
 26 51  1  0
 27 52  1  0
 27 53  1  0
 28 54  1  0
 28 55  1  0
 30 56  1  0
 30 57  1  0
 31 58  1  0
 31 59  1  0
 34 60  1  0
 34 61  1  0
 35 62  1  0
M  END
$$$$
[H]c1nc2c([H])c(OC([H])([H])C([H])([H])C([H])([H])N3C([H])([H])C([H])([H])C([H])([H])C3([H])[H])c(OC([H])([H])[H])c([H])c2c(-c2c([H])c([H])c(N([H])c3nc([H])c(C4([H])C([H])([H])C([H])([H])N(C([H])([H])[H])C([H])([H])C4([H])[H])c([H])n3)c([H])c2[H])c1[H]
     RDKit          3D

 81 86  0  0  0  0  0  0  0  0999 V2000
  -10.5895   -0.5486    3.8222 C   0  0  0  0  0  0  0  0  0  0  0  0
  -10.3157    0.5372    2.9203 N   0  0  0  0  0  0  0  0  0  0  0  0
   -9.3064    1.4305    3.3916 C   0  0  0  0  0  0  0  0  0  0  0  0
   -7.9523    0.8582    2.9563 C   0  0  0  0  0  0  0  0  0  0  0  0
   -7.8704    1.1050    1.4626 C   0  0  0  0  0  0  0  0  0  0  0  0
   -9.1737    0.9212    0.7718 C   0  0  0  0  0  0  0  0  0  0  0  0
  -10.1793    0.1266    1.5616 C   0  0  0  0  0  0  0  0  0  0  0  0
   -6.7363    0.3920    0.8244 C   0  0  0  0  0  0  0  0  0  0  0  0
   -5.6352    1.0165    0.2759 C   0  0  0  0  0  0  0  0  0  0  0  0
   -4.6380    0.3531   -0.2857 N   0  0  0  0  0  0  0  0  0  0  0  0
   -4.6288   -0.9754   -0.3602 C   0  0  0  0  0  0  0  0  0  0  0  0
   -3.6202   -1.7765   -0.9277 N   0  0  0  0  0  0  0  0  0  0  0  0
   -2.4378   -1.3451   -1.5065 C   0  0  0  0  0  0  0  0  0  0  0  0
   -1.7291   -2.2170   -2.3468 C   0  0  0  0  0  0  0  0  0  0  0  0
   -0.5477   -1.9060   -2.9457 C   0  0  0  0  0  0  0  0  0  0  0  0
   -0.0046   -0.6440   -2.7121 C   0  0  0  0  0  0  0  0  0  0  0  0
   -0.6647    0.2429   -1.8953 C   0  0  0  0  0  0  0  0  0  0  0  0
   -1.8772   -0.1131   -1.2971 C   0  0  0  0  0  0  0  0  0  0  0  0
    1.2286   -0.2313   -3.3494 C   0  0  0  0  0  0  0  0  0  0  0  0
    1.2497   -0.2463   -4.7348 C   0  0  0  0  0  0  0  0  0  0  0  0
    2.3932    0.1728   -5.4090 C   0  0  0  0  0  0  0  0  0  0  0  0
    3.4661    0.5880   -4.7306 N   0  0  0  0  0  0  0  0  0  0  0  0
    3.4853    0.6176   -3.3983 C   0  0  0  0  0  0  0  0  0  0  0  0
    4.6105    1.0404   -2.7283 C   0  0  0  0  0  0  0  0  0  0  0  0
    4.6983    1.0816   -1.3625 C   0  0  0  0  0  0  0  0  0  0  0  0
    5.7325    1.4663   -0.5959 O   0  0  0  0  0  0  0  0  0  0  0  0
    7.0141    1.9019   -0.8408 C   0  0  0  0  0  0  0  0  0  0  0  0
    7.8483    0.8512   -1.5061 C   0  0  0  0  0  0  0  0  0  0  0  0
    7.9198   -0.3853   -0.7156 C   0  0  0  0  0  0  0  0  0  0  0  0
    8.4086   -0.4927    0.5430 N   0  0  0  0  0  0  0  0  0  0  0  0
    7.8987   -0.0372    1.7317 C   0  0  0  0  0  0  0  0  0  0  0  0
    9.1019    0.0983    2.6926 C   0  0  0  0  0  0  0  0  0  0  0  0
   10.1202   -0.8541    2.1395 C   0  0  0  0  0  0  0  0  0  0  0  0
    9.7473   -0.9651    0.6886 C   0  0  0  0  0  0  0  0  0  0  0  0
    3.5341    0.6535   -0.6858 C   0  0  0  0  0  0  0  0  0  0  0  0
    3.5366    0.6626    0.6885 O   0  0  0  0  0  0  0  0  0  0  0  0
    2.3934    0.2385    1.4004 C   0  0  0  0  0  0  0  0  0  0  0  0
    2.4058    0.2302   -1.3421 C   0  0  0  0  0  0  0  0  0  0  0  0
    2.3518    0.2021   -2.6984 C   0  0  0  0  0  0  0  0  0  0  0  0
   -5.7159   -1.6248    0.1788 N   0  0  0  0  0  0  0  0  0  0  0  0
   -6.7384   -0.9818    0.7526 C   0  0  0  0  0  0  0  0  0  0  0  0
  -10.7650   -0.1028    4.8278 H   0  0  0  0  0  0  0  0  0  0  0  0
  -11.5149   -1.0742    3.5029 H   0  0  0  0  0  0  0  0  0  0  0  0
   -9.7806   -1.3033    3.8528 H   0  0  0  0  0  0  0  0  0  0  0  0
   -9.4029    2.4020    2.8682 H   0  0  0  0  0  0  0  0  0  0  0  0
   -9.3767    1.5003    4.4844 H   0  0  0  0  0  0  0  0  0  0  0  0
   -7.8067   -0.1767    3.2469 H   0  0  0  0  0  0  0  0  0  0  0  0
   -7.1855    1.4912    3.4859 H   0  0  0  0  0  0  0  0  0  0  0  0
   -7.6106    2.2023    1.3717 H   0  0  0  0  0  0  0  0  0  0  0  0
   -9.0011    0.3788   -0.1871 H   0  0  0  0  0  0  0  0  0  0  0  0
   -9.6655    1.8805    0.4938 H   0  0  0  0  0  0  0  0  0  0  0  0
   -9.9848   -0.9632    1.5431 H   0  0  0  0  0  0  0  0  0  0  0  0
  -11.1633    0.2671    1.0641 H   0  0  0  0  0  0  0  0  0  0  0  0
   -5.6305    2.1130    0.3328 H   0  0  0  0  0  0  0  0  0  0  0  0
   -3.7778   -2.8359   -0.9074 H   0  0  0  0  0  0  0  0  0  0  0  0
   -2.1592   -3.1877   -2.5195 H   0  0  0  0  0  0  0  0  0  0  0  0
    0.0045   -2.5564   -3.5879 H   0  0  0  0  0  0  0  0  0  0  0  0
   -0.2227    1.2318   -1.7248 H   0  0  0  0  0  0  0  0  0  0  0  0
   -2.2960    0.6455   -0.6723 H   0  0  0  0  0  0  0  0  0  0  0  0
    0.3833   -0.5804   -5.2893 H   0  0  0  0  0  0  0  0  0  0  0  0
    2.3503    0.1379   -6.4815 H   0  0  0  0  0  0  0  0  0  0  0  0
    5.4421    1.3660   -3.3275 H   0  0  0  0  0  0  0  0  0  0  0  0
    6.9745    2.8350   -1.5040 H   0  0  0  0  0  0  0  0  0  0  0  0
    7.4627    2.2871    0.1130 H   0  0  0  0  0  0  0  0  0  0  0  0
    7.3872    0.6028   -2.4800 H   0  0  0  0  0  0  0  0  0  0  0  0
    8.8591    1.2540   -1.8001 H   0  0  0  0  0  0  0  0  0  0  0  0
    8.4595   -1.1515   -1.3860 H   0  0  0  0  0  0  0  0  0  0  0  0
    6.8579   -0.8296   -0.7417 H   0  0  0  0  0  0  0  0  0  0  0  0
    7.2328    0.8022    1.8228 H   0  0  0  0  0  0  0  0  0  0  0  0
    7.3160   -0.9017    2.2159 H   0  0  0  0  0  0  0  0  0  0  0  0
    8.8431   -0.2524    3.7116 H   0  0  0  0  0  0  0  0  0  0  0  0
    9.4481    1.1438    2.7599 H   0  0  0  0  0  0  0  0  0  0  0  0
   10.0303   -1.8621    2.6150 H   0  0  0  0  0  0  0  0  0  0  0  0
   11.1514   -0.5053    2.2355 H   0  0  0  0  0  0  0  0  0  0  0  0
   10.4598   -0.4652    0.0118 H   0  0  0  0  0  0  0  0  0  0  0  0
    9.7385   -2.0508    0.3886 H   0  0  0  0  0  0  0  0  0  0  0  0
    2.5782    0.2574    2.5020 H   0  0  0  0  0  0  0  0  0  0  0  0
    1.5003    0.8580    1.2125 H   0  0  0  0  0  0  0  0  0  0  0  0
    2.1089   -0.8061    1.1083 H   0  0  0  0  0  0  0  0  0  0  0  0
    1.5439   -0.1027   -0.7516 H   0  0  0  0  0  0  0  0  0  0  0  0
   -7.5720   -1.5346    1.1618 H   0  0  0  0  0  0  0  0  0  0  0  0
  1  2  1  0
  2  3  1  0
  3  4  1  0
  4  5  1  0
  5  6  1  0
  6  7  1  0
  5  8  1  0
  8  9  2  0
  9 10  1  0
 10 11  2  0
 11 12  1  0
 12 13  1  0
 13 14  2  0
 14 15  1  0
 15 16  2  0
 16 17  1  0
 17 18  2  0
 16 19  1  0
 19 20  2  0
 20 21  1  0
 21 22  2  0
 22 23  1  0
 23 24  2  0
 24 25  1  0
 25 26  1  0
 26 27  1  0
 27 28  1  0
 28 29  1  0
 29 30  1  0
 30 31  1  0
 31 32  1  0
 32 33  1  0
 33 34  1  0
 25 35  2  0
 35 36  1  0
 36 37  1  0
 35 38  1  0
 38 39  2  0
 11 40  1  0
 40 41  2  0
  7  2  1  0
 41  8  1  0
 18 13  1  0
 39 19  1  0
 39 23  1  0
 34 30  1  0
  1 42  1  0
  1 43  1  0
  1 44  1  0
  3 45  1  0
  3 46  1  0
  4 47  1  0
  4 48  1  0
  5 49  1  0
  6 50  1  0
  6 51  1  0
  7 52  1  0
  7 53  1  0
  9 54  1  0
 12 55  1  0
 14 56  1  0
 15 57  1  0
 17 58  1  0
 18 59  1  0
 20 60  1  0
 21 61  1  0
 24 62  1  0
 27 63  1  0
 27 64  1  0
 28 65  1  0
 28 66  1  0
 29 67  1  0
 29 68  1  0
 31 69  1  0
 31 70  1  0
 32 71  1  0
 32 72  1  0
 33 73  1  0
 33 74  1  0
 34 75  1  0
 34 76  1  0
 37 77  1  0
 37 78  1  0
 37 79  1  0
 38 80  1  0
 41 81  1  0
M  END
$$$$
[H]O[C@]1([H])C([H])([H])C([H])([H])[C@@]([H])(N([H])c2nc([H])nc3c([H])c(OC([H])([H])[H])c(OC([H])([H])[H])c([H])c23)C([H])([H])C1([H])[H]
     RDKit          3D

 43 45  0  0  0  0  0  0  0  0999 V2000
    6.4488    0.3598    0.3323 C   0  0  0  0  0  0  0  0  0  0  0  0
    5.4936   -0.5400   -0.2083 O   0  0  0  0  0  0  0  0  0  0  0  0
    4.1477   -0.2411   -0.0948 C   0  0  0  0  0  0  0  0  0  0  0  0
    3.6910    0.9011    0.5252 C   0  0  0  0  0  0  0  0  0  0  0  0
    2.3487    1.2185    0.6491 C   0  0  0  0  0  0  0  0  0  0  0  0
    1.9983    2.3632    1.2751 N   0  0  0  0  0  0  0  0  0  0  0  0
    0.6916    2.6448    1.3810 C   0  0  0  0  0  0  0  0  0  0  0  0
   -0.2249    1.8066    0.8764 N   0  0  0  0  0  0  0  0  0  0  0  0
    0.0953    0.6438    0.2390 C   0  0  0  0  0  0  0  0  0  0  0  0
   -0.9012   -0.1970   -0.2867 N   0  0  0  0  0  0  0  0  0  0  0  0
   -2.3069    0.1102   -0.1522 C   0  0  1  0  0  0  0  0  0  0  0  0
   -3.1696   -0.8613   -0.9362 C   0  0  0  0  0  0  0  0  0  0  0  0
   -4.5910   -0.6366   -0.5469 C   0  0  0  0  0  0  0  0  0  0  0  0
   -4.8772    0.7018    0.0733 C   0  0  2  0  0  0  0  0  0  0  0  0
   -4.8444    1.7204   -0.8526 O   0  0  0  0  0  0  0  0  0  0  0  0
   -4.0351    0.9762    1.3013 C   0  0  0  0  0  0  0  0  0  0  0  0
   -2.7927    0.0979    1.2812 C   0  0  0  0  0  0  0  0  0  0  0  0
    1.4303    0.3256    0.1139 C   0  0  0  0  0  0  0  0  0  0  0  0
    1.8632   -0.8257   -0.5120 C   0  0  0  0  0  0  0  0  0  0  0  0
    3.2170   -1.1199   -0.6226 C   0  0  0  0  0  0  0  0  0  0  0  0
    3.6383   -2.2798   -1.2538 O   0  0  0  0  0  0  0  0  0  0  0  0
    2.6700   -3.1603   -1.7841 C   0  0  0  0  0  0  0  0  0  0  0  0
    7.4645   -0.0563    0.2398 H   0  0  0  0  0  0  0  0  0  0  0  0
    6.3168    1.3278   -0.1809 H   0  0  0  0  0  0  0  0  0  0  0  0
    6.1670    0.5142    1.4093 H   0  0  0  0  0  0  0  0  0  0  0  0
    4.4065    1.6160    0.9529 H   0  0  0  0  0  0  0  0  0  0  0  0
    0.4216    3.5637    1.8840 H   0  0  0  0  0  0  0  0  0  0  0  0
   -0.6680   -1.0631   -0.7881 H   0  0  0  0  0  0  0  0  0  0  0  0
   -2.4726    1.1169   -0.5745 H   0  0  0  0  0  0  0  0  0  0  0  0
   -3.0618   -0.5952   -2.0147 H   0  0  0  0  0  0  0  0  0  0  0  0
   -2.8746   -1.9041   -0.8152 H   0  0  0  0  0  0  0  0  0  0  0  0
   -4.8604   -1.4080    0.2196 H   0  0  0  0  0  0  0  0  0  0  0  0
   -5.2747   -0.7715   -1.3899 H   0  0  0  0  0  0  0  0  0  0  0  0
   -5.9436    0.6458    0.4419 H   0  0  0  0  0  0  0  0  0  0  0  0
   -4.5337    2.5672   -0.4927 H   0  0  0  0  0  0  0  0  0  0  0  0
   -3.7394    2.0328    1.3874 H   0  0  0  0  0  0  0  0  0  0  0  0
   -4.5777    0.7142    2.2330 H   0  0  0  0  0  0  0  0  0  0  0  0
   -2.0155    0.3932    1.9739 H   0  0  0  0  0  0  0  0  0  0  0  0
   -3.0673   -0.9577    1.5166 H   0  0  0  0  0  0  0  0  0  0  0  0
    1.1621   -1.5283   -0.9317 H   0  0  0  0  0  0  0  0  0  0  0  0
    2.0521   -3.6460   -1.0126 H   0  0  0  0  0  0  0  0  0  0  0  0
    3.1493   -3.9505   -2.3952 H   0  0  0  0  0  0  0  0  0  0  0  0
    1.9586   -2.6195   -2.4606 H   0  0  0  0  0  0  0  0  0  0  0  0
  1  2  1  0
  2  3  1  0
  3  4  2  0
  4  5  1  0
  5  6  2  0
  6  7  1  0
  7  8  2  0
  8  9  1  0
  9 10  1  0
 10 11  1  0
 11 12  1  0
 12 13  1  0
 13 14  1  0
 14 15  1  0
 14 16  1  0
 16 17  1  0
  9 18  2  0
 18 19  1  0
 19 20  2  0
 20 21  1  0
 21 22  1  0
 20  3  1  0
 18  5  1  0
 17 11  1  0
  1 23  1  0
  1 24  1  0
  1 25  1  0
  4 26  1  0
  7 27  1  0
 10 28  1  0
 11 29  1  6
 12 30  1  0
 12 31  1  0
 13 32  1  0
 13 33  1  0
 14 34  1  1
 15 35  1  0
 16 36  1  0
 16 37  1  0
 17 38  1  0
 17 39  1  0
 19 40  1  0
 22 41  1  0
 22 42  1  0
 22 43  1  0
M  END
$$$$
[H]O[C@]1([H])C([H])([H])C([H])([H])[C@@]([H])(n2c([H])c(-c3c([H])nn([H])c3[H])c3c([H])nc(N([H])C([H])([H])C([H])([H])C([H])([H])C([H])([H])[H])nc32)C([H])([H])C1([H])[H]
     RDKit          3D

 52 55  0  0  0  0  0  0  0  0999 V2000
    6.6142   -2.2246    0.0679 C   0  0  0  0  0  0  0  0  0  0  0  0
    5.3903   -1.3852    0.3605 C   0  0  0  0  0  0  0  0  0  0  0  0
    5.2739   -0.3532   -0.7147 C   0  0  0  0  0  0  0  0  0  0  0  0
    4.0857    0.5618   -0.5466 C   0  0  0  0  0  0  0  0  0  0  0  0
    2.8388   -0.1362   -0.5526 N   0  0  0  0  0  0  0  0  0  0  0  0
    1.6291    0.6158   -0.4013 C   0  0  0  0  0  0  0  0  0  0  0  0
    1.6888    1.9534   -0.2577 N   0  0  0  0  0  0  0  0  0  0  0  0
    0.6047    2.7262   -0.1113 C   0  0  0  0  0  0  0  0  0  0  0  0
   -0.6386    2.1052   -0.1089 C   0  0  0  0  0  0  0  0  0  0  0  0
   -1.9337    2.5582    0.0144 C   0  0  0  0  0  0  0  0  0  0  0  0
   -2.7359    1.4426   -0.0626 C   0  0  0  0  0  0  0  0  0  0  0  0
   -2.0049    0.3301   -0.2263 N   0  0  0  0  0  0  0  0  0  0  0  0
   -2.5115   -1.0253   -0.3464 C   0  0  1  0  0  0  0  0  0  0  0  0
   -1.8664   -1.7809   -1.4757 C   0  0  0  0  0  0  0  0  0  0  0  0
   -2.7191   -2.9849   -1.7696 C   0  0  0  0  0  0  0  0  0  0  0  0
   -3.4644   -3.4990   -0.5792 C   0  0  2  0  0  0  0  0  0  0  0  0
   -4.8260   -3.1157   -0.6114 O   0  0  0  0  0  0  0  0  0  0  0  0
   -2.8294   -3.2036    0.7304 C   0  0  0  0  0  0  0  0  0  0  0  0
   -2.3405   -1.8142    0.9120 C   0  0  0  0  0  0  0  0  0  0  0  0
   -0.7202    0.7286   -0.2555 C   0  0  0  0  0  0  0  0  0  0  0  0
    0.4230    0.0212   -0.3981 N   0  0  0  0  0  0  0  0  0  0  0  0
   -2.2726    3.9632    0.1880 C   0  0  0  0  0  0  0  0  0  0  0  0
   -3.2835    4.6167   -0.4950 C   0  0  0  0  0  0  0  0  0  0  0  0
   -3.3157    5.8871   -0.0927 N   0  0  0  0  0  0  0  0  0  0  0  0
   -2.3793    6.0478    0.8000 N   0  0  0  0  0  0  0  0  0  0  0  0
   -1.7036    4.9039    1.0165 C   0  0  0  0  0  0  0  0  0  0  0  0
    7.0240   -2.5746    1.0350 H   0  0  0  0  0  0  0  0  0  0  0  0
    6.3978   -3.0839   -0.5930 H   0  0  0  0  0  0  0  0  0  0  0  0
    7.3841   -1.5585   -0.3841 H   0  0  0  0  0  0  0  0  0  0  0  0
    4.5109   -2.0716    0.2538 H   0  0  0  0  0  0  0  0  0  0  0  0
    5.4603   -0.9723    1.3667 H   0  0  0  0  0  0  0  0  0  0  0  0
    6.1835    0.3098   -0.6236 H   0  0  0  0  0  0  0  0  0  0  0  0
    5.3333   -0.8049   -1.7060 H   0  0  0  0  0  0  0  0  0  0  0  0
    4.1707    1.1955    0.3582 H   0  0  0  0  0  0  0  0  0  0  0  0
    4.0899    1.2450   -1.4335 H   0  0  0  0  0  0  0  0  0  0  0  0
    2.7436   -1.1705   -0.6608 H   0  0  0  0  0  0  0  0  0  0  0  0
    0.6164    3.7942    0.0054 H   0  0  0  0  0  0  0  0  0  0  0  0
   -3.8147    1.4416   -0.0014 H   0  0  0  0  0  0  0  0  0  0  0  0
   -3.6104   -0.9720   -0.5643 H   0  0  0  0  0  0  0  0  0  0  0  0
   -1.7447   -1.1623   -2.3798 H   0  0  0  0  0  0  0  0  0  0  0  0
   -0.8591   -2.1276   -1.1194 H   0  0  0  0  0  0  0  0  0  0  0  0
   -2.1500   -3.7946   -2.3015 H   0  0  0  0  0  0  0  0  0  0  0  0
   -3.4925   -2.6493   -2.5197 H   0  0  0  0  0  0  0  0  0  0  0  0
   -3.4991   -4.6245   -0.6853 H   0  0  0  0  0  0  0  0  0  0  0  0
   -5.0321   -2.6735   -1.4891 H   0  0  0  0  0  0  0  0  0  0  0  0
   -2.0498   -3.9897    0.9234 H   0  0  0  0  0  0  0  0  0  0  0  0
   -3.6062   -3.3929    1.5281 H   0  0  0  0  0  0  0  0  0  0  0  0
   -2.8012   -1.2846    1.7961 H   0  0  0  0  0  0  0  0  0  0  0  0
   -1.2445   -1.8766    1.1788 H   0  0  0  0  0  0  0  0  0  0  0  0
   -3.9230    4.1506   -1.2256 H   0  0  0  0  0  0  0  0  0  0  0  0
   -2.1999    6.9803    1.2771 H   0  0  0  0  0  0  0  0  0  0  0  0
   -0.8905    4.7278    1.6846 H   0  0  0  0  0  0  0  0  0  0  0  0
  1  2  1  0
  2  3  1  0
  3  4  1  0
  4  5  1  0
  5  6  1  0
  6  7  2  0
  7  8  1  0
  8  9  2  0
  9 10  1  0
 10 11  2  0
 11 12  1  0
 12 13  1  0
 13 14  1  0
 14 15  1  0
 15 16  1  0
 16 17  1  0
 16 18  1  0
 18 19  1  0
 12 20  1  0
 20 21  2  0
 10 22  1  0
 22 23  1  0
 23 24  2  0
 24 25  1  0
 25 26  1  0
 21  6  1  0
 26 22  2  0
 20  9  1  0
 19 13  1  0
  1 27  1  0
  1 28  1  0
  1 29  1  0
  2 30  1  0
  2 31  1  0
  3 32  1  0
  3 33  1  0
  4 34  1  0
  4 35  1  0
  5 36  1  0
  8 37  1  0
 11 38  1  0
 13 39  1  6
 14 40  1  0
 14 41  1  0
 15 42  1  0
 15 43  1  0
 16 44  1  6
 17 45  1  0
 18 46  1  0
 18 47  1  0
 19 48  1  0
 19 49  1  0
 23 50  1  0
 25 51  1  0
 26 52  1  0
M  END
$$$$
[H]c1nn2c([H])c(C(=O)N([H])C([H])([H])C([H])([H])N(C([H])([H])[H])C([H])([H])[H])c([H])c(Oc3c([H])c([H])c([H])c(N([H])C(=O)c4c([H])n(C([H])(C([H])([H])[H])C([H])([H])[H])c(=O)n(-c5c([H])c([H])c(F)c([H])c5[H])c4=O)c3[H])c2c1[H]
     RDKit          3D

 77 81  0  0  0  0  0  0  0  0999 V2000
   -6.6498    3.8898    0.9031 C   0  0  0  0  0  0  0  0  0  0  0  0
   -7.3966    2.7224    0.2997 C   0  0  0  0  0  0  0  0  0  0  0  0
   -7.8108    3.0555   -1.1154 C   0  0  0  0  0  0  0  0  0  0  0  0
   -6.6118    1.5097    0.2497 N   0  0  0  0  0  0  0  0  0  0  0  0
   -5.2758    1.5620    0.2037 C   0  0  0  0  0  0  0  0  0  0  0  0
   -4.5554    0.3867    0.1550 C   0  0  0  0  0  0  0  0  0  0  0  0
   -3.0820    0.4003    0.1081 C   0  0  0  0  0  0  0  0  0  0  0  0
   -2.5516   -0.3367   -0.7349 O   0  0  0  0  0  0  0  0  0  0  0  0
   -2.3578    1.2081    0.9773 N   0  0  0  0  0  0  0  0  0  0  0  0
   -0.9655    1.3193    1.0324 C   0  0  0  0  0  0  0  0  0  0  0  0
   -0.4353    1.8294    2.2251 C   0  0  0  0  0  0  0  0  0  0  0  0
    0.9052    1.9903    2.3417 C   0  0  0  0  0  0  0  0  0  0  0  0
    1.7428    1.6649    1.3196 C   0  0  0  0  0  0  0  0  0  0  0  0
    1.2577    1.1545    0.1137 C   0  0  0  0  0  0  0  0  0  0  0  0
    2.1391    0.8428   -0.9021 O   0  0  0  0  0  0  0  0  0  0  0  0
    3.0082   -0.1962   -0.9662 C   0  0  0  0  0  0  0  0  0  0  0  0
    4.3751    0.1054   -1.0200 C   0  0  0  0  0  0  0  0  0  0  0  0
    5.3144   -0.8936   -1.0872 C   0  0  0  0  0  0  0  0  0  0  0  0
    4.9270   -2.1956   -1.1030 C   0  0  0  0  0  0  0  0  0  0  0  0
    3.6128   -2.5035   -1.0517 N   0  0  0  0  0  0  0  0  0  0  0  0
    3.0468   -3.7056   -1.0626 N   0  0  0  0  0  0  0  0  0  0  0  0
    1.7134   -3.5596   -1.0040 C   0  0  0  0  0  0  0  0  0  0  0  0
    1.4797   -2.2094   -0.9565 C   0  0  0  0  0  0  0  0  0  0  0  0
    2.6827   -1.5280   -0.9856 C   0  0  0  0  0  0  0  0  0  0  0  0
    6.7509   -0.4968   -1.1396 C   0  0  0  0  0  0  0  0  0  0  0  0
    6.9463    0.6729   -1.5238 O   0  0  0  0  0  0  0  0  0  0  0  0
    7.7272   -1.4158   -0.7707 N   0  0  0  0  0  0  0  0  0  0  0  0
    9.1459   -1.3098   -0.7065 C   0  0  0  0  0  0  0  0  0  0  0  0
    9.6637   -0.3251    0.2841 C   0  0  0  0  0  0  0  0  0  0  0  0
    9.3444    1.0512    0.0123 N   0  0  0  0  0  0  0  0  0  0  0  0
    9.7365    1.8419    1.1940 C   0  0  0  0  0  0  0  0  0  0  0  0
   10.3116    1.4851   -1.0316 C   0  0  0  0  0  0  0  0  0  0  0  0
   -0.1174    0.9995    0.0215 C   0  0  0  0  0  0  0  0  0  0  0  0
   -5.2138   -0.8205    0.1542 C   0  0  0  0  0  0  0  0  0  0  0  0
   -4.5470   -1.9129    0.1090 O   0  0  0  0  0  0  0  0  0  0  0  0
   -6.5586   -0.8217    0.2016 N   0  0  0  0  0  0  0  0  0  0  0  0
   -7.2521   -2.0505    0.2056 C   0  0  0  0  0  0  0  0  0  0  0  0
   -7.9983   -2.3944   -0.9008 C   0  0  0  0  0  0  0  0  0  0  0  0
   -8.6907   -3.5877   -0.9298 C   0  0  0  0  0  0  0  0  0  0  0  0
   -8.6293   -4.4351    0.1602 C   0  0  0  0  0  0  0  0  0  0  0  0
   -9.3029   -5.6263    0.1661 F   0  0  0  0  0  0  0  0  0  0  0  0
   -7.8736   -4.0686    1.2599 C   0  0  0  0  0  0  0  0  0  0  0  0
   -7.1774   -2.8801    1.3021 C   0  0  0  0  0  0  0  0  0  0  0  0
   -7.2548    0.3273    0.2489 C   0  0  0  0  0  0  0  0  0  0  0  0
   -8.5320    0.3367    0.2938 O   0  0  0  0  0  0  0  0  0  0  0  0
   -6.1603    3.6528    1.8477 H   0  0  0  0  0  0  0  0  0  0  0  0
   -7.4248    4.6936    1.0585 H   0  0  0  0  0  0  0  0  0  0  0  0
   -5.9401    4.3418    0.1655 H   0  0  0  0  0  0  0  0  0  0  0  0
   -8.3059    2.5576    0.8826 H   0  0  0  0  0  0  0  0  0  0  0  0
   -7.8695    2.1084   -1.7278 H   0  0  0  0  0  0  0  0  0  0  0  0
   -8.7814    3.5817   -1.0691 H   0  0  0  0  0  0  0  0  0  0  0  0
   -7.0440    3.7117   -1.5355 H   0  0  0  0  0  0  0  0  0  0  0  0
   -4.7219    2.5137    0.2036 H   0  0  0  0  0  0  0  0  0  0  0  0
   -2.9291    1.8047    1.6634 H   0  0  0  0  0  0  0  0  0  0  0  0
   -1.0895    2.0993    3.0637 H   0  0  0  0  0  0  0  0  0  0  0  0
    1.2808    2.3921    3.2904 H   0  0  0  0  0  0  0  0  0  0  0  0
    2.8067    1.8097    1.4599 H   0  0  0  0  0  0  0  0  0  0  0  0
    4.6668    1.1410   -1.0067 H   0  0  0  0  0  0  0  0  0  0  0  0
    5.6350   -3.0135   -1.1606 H   0  0  0  0  0  0  0  0  0  0  0  0
    0.9650   -4.3595   -0.9958 H   0  0  0  0  0  0  0  0  0  0  0  0
    0.5172   -1.7806   -0.9110 H   0  0  0  0  0  0  0  0  0  0  0  0
    7.3734   -2.4120   -0.4619 H   0  0  0  0  0  0  0  0  0  0  0  0
    9.5750   -1.0509   -1.7197 H   0  0  0  0  0  0  0  0  0  0  0  0
    9.6261   -2.2908   -0.4569 H   0  0  0  0  0  0  0  0  0  0  0  0
   10.7748   -0.4383    0.4438 H   0  0  0  0  0  0  0  0  0  0  0  0
    9.2501   -0.5930    1.3070 H   0  0  0  0  0  0  0  0  0  0  0  0
    8.9404    1.7218    1.9497 H   0  0  0  0  0  0  0  0  0  0  0  0
    9.7758    2.8927    0.8770 H   0  0  0  0  0  0  0  0  0  0  0  0
   10.6970    1.4597    1.5553 H   0  0  0  0  0  0  0  0  0  0  0  0
   11.2635    0.9967   -0.7740 H   0  0  0  0  0  0  0  0  0  0  0  0
   10.4370    2.5846   -0.9766 H   0  0  0  0  0  0  0  0  0  0  0  0
    9.9222    1.2031   -2.0096 H   0  0  0  0  0  0  0  0  0  0  0  0
   -0.4661    0.6099   -0.9407 H   0  0  0  0  0  0  0  0  0  0  0  0
   -8.0843   -1.7709   -1.7808 H   0  0  0  0  0  0  0  0  0  0  0  0
   -9.2894   -3.9101   -1.7686 H   0  0  0  0  0  0  0  0  0  0  0  0
   -7.8068   -4.7230    2.1430 H   0  0  0  0  0  0  0  0  0  0  0  0
   -6.5848   -2.6162    2.1931 H   0  0  0  0  0  0  0  0  0  0  0  0
  1  2  1  0
  2  3  1  0
  2  4  1  0
  4  5  1  0
  5  6  2  0
  6  7  1  0
  7  8  2  0
  7  9  1  0
  9 10  1  0
 10 11  2  0
 11 12  1  0
 12 13  2  0
 13 14  1  0
 14 15  1  0
 15 16  1  0
 16 17  2  0
 17 18  1  0
 18 19  2  0
 19 20  1  0
 20 21  1  0
 21 22  2  0
 22 23  1  0
 23 24  2  0
 18 25  1  0
 25 26  2  0
 25 27  1  0
 27 28  1  0
 28 29  1  0
 29 30  1  0
 30 31  1  0
 30 32  1  0
 14 33  2  0
  6 34  1  0
 34 35  2  0
 34 36  1  0
 36 37  1  0
 37 38  2  0
 38 39  1  0
 39 40  2  0
 40 41  1  0
 40 42  1  0
 42 43  2  0
 36 44  1  0
 44 45  2  0
 44  4  1  0
 33 10  1  0
 43 37  1  0
 24 16  1  0
 24 20  1  0
  1 46  1  0
  1 47  1  0
  1 48  1  0
  2 49  1  0
  3 50  1  0
  3 51  1  0
  3 52  1  0
  5 53  1  0
  9 54  1  0
 11 55  1  0
 12 56  1  0
 13 57  1  0
 17 58  1  0
 19 59  1  0
 22 60  1  0
 23 61  1  0
 27 62  1  0
 28 63  1  0
 28 64  1  0
 29 65  1  0
 29 66  1  0
 31 67  1  0
 31 68  1  0
 31 69  1  0
 32 70  1  0
 32 71  1  0
 32 72  1  0
 33 73  1  0
 38 74  1  0
 39 75  1  0
 42 76  1  0
 43 77  1  0
M  END
$$$$
[H]c1nc2c(c(N([H])[H])n1)C([H])([H])C([H])([H])O2
     RDKit          3D

 17 18  0  0  0  0  0  0  0  0999 V2000
    1.2382    2.0807    0.1355 N   0  0  0  0  0  0  0  0  0  0  0  0
    1.2139    0.6779    0.0168 C   0  0  0  0  0  0  0  0  0  0  0  0
    2.3037   -0.0728   -0.2183 N   0  0  0  0  0  0  0  0  0  0  0  0
    2.2108   -1.4099   -0.3206 C   0  0  0  0  0  0  0  0  0  0  0  0
    1.0311   -2.0454   -0.1925 N   0  0  0  0  0  0  0  0  0  0  0  0
   -0.1195   -1.3525    0.0471 C   0  0  0  0  0  0  0  0  0  0  0  0
   -1.4523   -1.7325    0.2214 O   0  0  0  0  0  0  0  0  0  0  0  0
   -2.1967   -0.6039   -0.2604 C   0  0  0  0  0  0  0  0  0  0  0  0
   -1.3924    0.5147    0.4083 C   0  0  0  0  0  0  0  0  0  0  0  0
   -0.0036    0.0184    0.1488 C   0  0  0  0  0  0  0  0  0  0  0  0
    1.3068    2.6671   -0.7059 H   0  0  0  0  0  0  0  0  0  0  0  0
    1.1870    2.5125    1.0672 H   0  0  0  0  0  0  0  0  0  0  0  0
    3.0929   -2.0239   -0.5115 H   0  0  0  0  0  0  0  0  0  0  0  0
   -2.0265   -0.5692   -1.3502 H   0  0  0  0  0  0  0  0  0  0  0  0
   -3.2361   -0.6199    0.0504 H   0  0  0  0  0  0  0  0  0  0  0  0
   -1.5853    1.4925   -0.0380 H   0  0  0  0  0  0  0  0  0  0  0  0
   -1.5720    0.4661    1.5016 H   0  0  0  0  0  0  0  0  0  0  0  0
  1  2  1  0
  2  3  2  0
  3  4  1  0
  4  5  2  0
  5  6  1  0
  6  7  1  0
  7  8  1  0
  8  9  1  0
  9 10  1  0
 10  2  1  0
 10  6  2  0
  1 11  1  0
  1 12  1  0
  4 13  1  0
  8 14  1  0
  8 15  1  0
  9 16  1  0
  9 17  1  0
M  END
$$$$
[H]c1c(-c2c([H])c(C(=O)N([H])[H])c([H])n2[H])noc1-c1c([H])c([H])c(C(=O)N([H])C([H])([H])C([H])([H])N([H])C([H])([H])[H])c([H])c1[H]
     RDKit          3D

 45 47  0  0  0  0  0  0  0  0999 V2000
    8.0420    0.2491   -0.5303 C   0  0  0  0  0  0  0  0  0  0  0  0
    7.1318    1.1197    0.2467 N   0  0  0  0  0  0  0  0  0  0  0  0
    6.7665    0.5023    1.4765 C   0  0  0  0  0  0  0  0  0  0  0  0
    5.8270   -0.6366    1.4653 C   0  0  0  0  0  0  0  0  0  0  0  0
    4.4819   -0.4586    1.0889 N   0  0  0  0  0  0  0  0  0  0  0  0
    3.9434   -0.0322   -0.1301 C   0  0  0  0  0  0  0  0  0  0  0  0
    4.6655    0.2607   -1.1013 O   0  0  0  0  0  0  0  0  0  0  0  0
    2.4605    0.0913   -0.3164 C   0  0  0  0  0  0  0  0  0  0  0  0
    1.6153   -0.6524    0.4335 C   0  0  0  0  0  0  0  0  0  0  0  0
    0.2262   -0.5111    0.2475 C   0  0  0  0  0  0  0  0  0  0  0  0
   -0.2758    0.3644   -0.6774 C   0  0  0  0  0  0  0  0  0  0  0  0
    0.6133    1.1019   -1.4199 C   0  0  0  0  0  0  0  0  0  0  0  0
    1.9831    0.9782   -1.2529 C   0  0  0  0  0  0  0  0  0  0  0  0
   -1.7333    0.4677   -0.8264 C   0  0  0  0  0  0  0  0  0  0  0  0
   -2.6655   -0.2524   -0.1136 C   0  0  0  0  0  0  0  0  0  0  0  0
   -3.8787    0.1562   -0.5688 C   0  0  0  0  0  0  0  0  0  0  0  0
   -3.6512    1.0775   -1.5091 N   0  0  0  0  0  0  0  0  0  0  0  0
   -2.3904    1.2482   -1.6477 O   0  0  0  0  0  0  0  0  0  0  0  0
   -5.2080   -0.3182   -0.1173 C   0  0  0  0  0  0  0  0  0  0  0  0
   -6.4241    0.1197   -0.5954 C   0  0  0  0  0  0  0  0  0  0  0  0
   -7.4527   -0.5345    0.0504 C   0  0  0  0  0  0  0  0  0  0  0  0
   -6.8274   -1.3837    0.9356 C   0  0  0  0  0  0  0  0  0  0  0  0
   -5.4954   -1.2334    0.8138 N   0  0  0  0  0  0  0  0  0  0  0  0
   -8.8953   -0.3987   -0.1209 C   0  0  0  0  0  0  0  0  0  0  0  0
   -9.4571    0.5360   -1.0319 N   0  0  0  0  0  0  0  0  0  0  0  0
   -9.6912   -1.1075    0.5353 O   0  0  0  0  0  0  0  0  0  0  0  0
    8.0343    0.7175   -1.5579 H   0  0  0  0  0  0  0  0  0  0  0  0
    7.6482   -0.7756   -0.5566 H   0  0  0  0  0  0  0  0  0  0  0  0
    9.0505    0.3230   -0.0679 H   0  0  0  0  0  0  0  0  0  0  0  0
    7.6581    1.9785    0.4572 H   0  0  0  0  0  0  0  0  0  0  0  0
    6.3279    1.2859    2.1740 H   0  0  0  0  0  0  0  0  0  0  0  0
    7.7483    0.1921    1.9786 H   0  0  0  0  0  0  0  0  0  0  0  0
    6.2714   -1.4166    0.7720 H   0  0  0  0  0  0  0  0  0  0  0  0
    5.8282   -1.1072    2.5043 H   0  0  0  0  0  0  0  0  0  0  0  0
    3.7096   -0.6665    1.8332 H   0  0  0  0  0  0  0  0  0  0  0  0
    1.9892   -1.3546    1.1652 H   0  0  0  0  0  0  0  0  0  0  0  0
   -0.4310   -1.1089    0.8517 H   0  0  0  0  0  0  0  0  0  0  0  0
    0.2655    1.8019   -2.1586 H   0  0  0  0  0  0  0  0  0  0  0  0
    2.6738    1.5532   -1.8316 H   0  0  0  0  0  0  0  0  0  0  0  0
   -2.4713   -0.9890    0.6490 H   0  0  0  0  0  0  0  0  0  0  0  0
   -6.6013    0.8647   -1.3630 H   0  0  0  0  0  0  0  0  0  0  0  0
   -7.2887   -2.0653    1.6232 H   0  0  0  0  0  0  0  0  0  0  0  0
   -4.7862   -1.7641    1.3747 H   0  0  0  0  0  0  0  0  0  0  0  0
   -9.3196    0.4236   -2.0581 H   0  0  0  0  0  0  0  0  0  0  0  0
  -10.0169    1.3537   -0.7163 H   0  0  0  0  0  0  0  0  0  0  0  0
  1  2  1  0
  2  3  1  0
  3  4  1  0
  4  5  1  0
  5  6  1  0
  6  7  2  0
  6  8  1  0
  8  9  2  0
  9 10  1  0
 10 11  2  0
 11 12  1  0
 12 13  2  0
 11 14  1  0
 14 15  2  0
 15 16  1  0
 16 17  2  0
 17 18  1  0
 16 19  1  0
 19 20  2  0
 20 21  1  0
 21 22  2  0
 22 23  1  0
 21 24  1  0
 24 25  1  0
 24 26  2  0
 13  8  1  0
 18 14  1  0
 23 19  1  0
  1 27  1  0
  1 28  1  0
  1 29  1  0
  2 30  1  0
  3 31  1  0
  3 32  1  0
  4 33  1  0
  4 34  1  0
  5 35  1  0
  9 36  1  0
 10 37  1  0
 12 38  1  0
 13 39  1  0
 15 40  1  0
 20 41  1  0
 22 42  1  0
 23 43  1  0
 25 44  1  0
 25 45  1  0
M  END
$$$$
[H]c1nc(N([H])[H])c2c(-c3c([H])c([H])c(N([H])C(=O)N([H])c4c([H])c([H])c([H])c(C([H])([H])[H])c4[H])c([H])c3[H])c([H])c(C3([H])C([H])([H])C([H])([H])N(C(=O)C([H])(C([H])([H])[H])C([H])([H])[H])C([H])([H])C3([H])[H])n2n1
     RDKit          3D

 71 75  0  0  0  0  0  0  0  0999 V2000
   -8.4903    2.4268    2.7540 C   0  0  0  0  0  0  0  0  0  0  0  0
   -7.8644    1.8517    1.4772 C   0  0  0  0  0  0  0  0  0  0  0  0
   -8.9853    1.7224    0.4677 C   0  0  0  0  0  0  0  0  0  0  0  0
   -7.2169    0.5533    1.7528 C   0  0  0  0  0  0  0  0  0  0  0  0
   -7.3346    0.0770    2.9204 O   0  0  0  0  0  0  0  0  0  0  0  0
   -6.4786   -0.2030    0.8253 N   0  0  0  0  0  0  0  0  0  0  0  0
   -6.2988    0.2914   -0.5168 C   0  0  0  0  0  0  0  0  0  0  0  0
   -4.7987    0.2800   -0.8029 C   0  0  0  0  0  0  0  0  0  0  0  0
   -4.3355   -1.1454   -0.7896 C   0  0  0  0  0  0  0  0  0  0  0  0
   -4.4967   -1.6698    0.6221 C   0  0  0  0  0  0  0  0  0  0  0  0
   -5.8782   -1.4832    1.1485 C   0  0  0  0  0  0  0  0  0  0  0  0
   -2.8809   -1.1588   -1.1263 C   0  0  0  0  0  0  0  0  0  0  0  0
   -1.8632   -0.4558   -0.5397 C   0  0  0  0  0  0  0  0  0  0  0  0
   -0.6647   -0.7879   -1.1847 C   0  0  0  0  0  0  0  0  0  0  0  0
    0.6558   -0.2826   -0.8210 C   0  0  0  0  0  0  0  0  0  0  0  0
    1.6163   -1.1317   -0.3299 C   0  0  0  0  0  0  0  0  0  0  0  0
    2.8755   -0.7034    0.0142 C   0  0  0  0  0  0  0  0  0  0  0  0
    3.2436    0.6104   -0.1164 C   0  0  0  0  0  0  0  0  0  0  0  0
    4.5064    1.1363    0.1916 N   0  0  0  0  0  0  0  0  0  0  0  0
    5.6834    0.4239    0.4402 C   0  0  0  0  0  0  0  0  0  0  0  0
    5.7303   -0.8349    0.4058 O   0  0  0  0  0  0  0  0  0  0  0  0
    6.8544    1.1453    0.7391 N   0  0  0  0  0  0  0  0  0  0  0  0
    8.1415    0.6326    1.0291 C   0  0  0  0  0  0  0  0  0  0  0  0
    8.4189   -0.6587    1.4013 C   0  0  0  0  0  0  0  0  0  0  0  0
    9.7418   -1.0512    1.6397 C   0  0  0  0  0  0  0  0  0  0  0  0
   10.7960   -0.1760    1.5135 C   0  0  0  0  0  0  0  0  0  0  0  0
   10.5392    1.1236    1.1418 C   0  0  0  0  0  0  0  0  0  0  0  0
   11.6727    2.0736    1.0039 C   0  0  0  0  0  0  0  0  0  0  0  0
    9.2403    1.4841    0.9142 C   0  0  0  0  0  0  0  0  0  0  0  0
    2.2420    1.4695   -0.6225 C   0  0  0  0  0  0  0  0  0  0  0  0
    1.0034    1.0284   -0.9571 C   0  0  0  0  0  0  0  0  0  0  0  0
   -1.0113   -1.6921   -2.1529 C   0  0  0  0  0  0  0  0  0  0  0  0
   -0.2936   -2.3793   -3.1226 C   0  0  0  0  0  0  0  0  0  0  0  0
    1.1025   -2.1456   -3.2077 N   0  0  0  0  0  0  0  0  0  0  0  0
   -0.9003   -3.2221   -3.9741 N   0  0  0  0  0  0  0  0  0  0  0  0
   -2.2166   -3.4030   -3.8889 C   0  0  0  0  0  0  0  0  0  0  0  0
   -2.9456   -2.7561   -2.9666 N   0  0  0  0  0  0  0  0  0  0  0  0
   -2.3506   -1.9168   -2.1168 N   0  0  0  0  0  0  0  0  0  0  0  0
   -9.2046    1.6748    3.1535 H   0  0  0  0  0  0  0  0  0  0  0  0
   -7.6930    2.6761    3.4818 H   0  0  0  0  0  0  0  0  0  0  0  0
   -8.9779    3.3704    2.4574 H   0  0  0  0  0  0  0  0  0  0  0  0
   -7.1668    2.6186    1.1235 H   0  0  0  0  0  0  0  0  0  0  0  0
   -8.9486    0.7027    0.0187 H   0  0  0  0  0  0  0  0  0  0  0  0
   -9.9755    1.9424    0.9034 H   0  0  0  0  0  0  0  0  0  0  0  0
   -8.7866    2.4274   -0.3610 H   0  0  0  0  0  0  0  0  0  0  0  0
   -6.7589   -0.3840   -1.2760 H   0  0  0  0  0  0  0  0  0  0  0  0
   -6.6339    1.3225   -0.6793 H   0  0  0  0  0  0  0  0  0  0  0  0
   -4.6468    0.8029   -1.7475 H   0  0  0  0  0  0  0  0  0  0  0  0
   -4.2387    0.8264   -0.0199 H   0  0  0  0  0  0  0  0  0  0  0  0
   -4.9002   -1.8100   -1.4680 H   0  0  0  0  0  0  0  0  0  0  0  0
   -3.7773   -1.2070    1.3010 H   0  0  0  0  0  0  0  0  0  0  0  0
   -4.2834   -2.7708    0.6403 H   0  0  0  0  0  0  0  0  0  0  0  0
   -5.8669   -1.5543    2.2602 H   0  0  0  0  0  0  0  0  0  0  0  0
   -6.6009   -2.2665    0.8007 H   0  0  0  0  0  0  0  0  0  0  0  0
   -1.9416    0.2425    0.2818 H   0  0  0  0  0  0  0  0  0  0  0  0
    1.3448   -2.1920   -0.2081 H   0  0  0  0  0  0  0  0  0  0  0  0
    3.5722   -1.4527    0.4094 H   0  0  0  0  0  0  0  0  0  0  0  0
    4.5818    2.2024    0.2477 H   0  0  0  0  0  0  0  0  0  0  0  0
    6.7544    2.2117    0.7521 H   0  0  0  0  0  0  0  0  0  0  0  0
    7.6277   -1.3935    1.5307 H   0  0  0  0  0  0  0  0  0  0  0  0
    9.9201   -2.0704    1.9289 H   0  0  0  0  0  0  0  0  0  0  0  0
   11.8032   -0.5367    1.7111 H   0  0  0  0  0  0  0  0  0  0  0  0
   11.3280    3.0772    1.2948 H   0  0  0  0  0  0  0  0  0  0  0  0
   11.8796    2.1353   -0.1034 H   0  0  0  0  0  0  0  0  0  0  0  0
   12.5561    1.7359    1.5642 H   0  0  0  0  0  0  0  0  0  0  0  0
    9.0473    2.5122    0.6205 H   0  0  0  0  0  0  0  0  0  0  0  0
    2.5217    2.5277   -0.7334 H   0  0  0  0  0  0  0  0  0  0  0  0
    0.2487    1.7211   -1.3472 H   0  0  0  0  0  0  0  0  0  0  0  0
    1.4395   -1.2055   -3.4739 H   0  0  0  0  0  0  0  0  0  0  0  0
    1.7879   -2.8910   -3.0104 H   0  0  0  0  0  0  0  0  0  0  0  0
   -2.7704   -4.0686   -4.5439 H   0  0  0  0  0  0  0  0  0  0  0  0
  1  2  1  0
  2  3  1  0
  2  4  1  0
  4  5  2  0
  4  6  1  0
  6  7  1  0
  7  8  1  0
  8  9  1  0
  9 10  1  0
 10 11  1  0
  9 12  1  0
 12 13  2  0
 13 14  1  0
 14 15  1  0
 15 16  2  0
 16 17  1  0
 17 18  2  0
 18 19  1  0
 19 20  1  0
 20 21  2  0
 20 22  1  0
 22 23  1  0
 23 24  2  0
 24 25  1  0
 25 26  2  0
 26 27  1  0
 27 28  1  0
 27 29  2  0
 18 30  1  0
 30 31  2  0
 14 32  2  0
 32 33  1  0
 33 34  1  0
 33 35  2  0
 35 36  1  0
 36 37  2  0
 37 38  1  0
 11  6  1  0
 38 12  1  0
 31 15  1  0
 38 32  1  0
 29 23  1  0
  1 39  1  0
  1 40  1  0
  1 41  1  0
  2 42  1  0
  3 43  1  0
  3 44  1  0
  3 45  1  0
  7 46  1  0
  7 47  1  0
  8 48  1  0
  8 49  1  0
  9 50  1  0
 10 51  1  0
 10 52  1  0
 11 53  1  0
 11 54  1  0
 13 55  1  0
 16 56  1  0
 17 57  1  0
 19 58  1  0
 22 59  1  0
 24 60  1  0
 25 61  1  0
 26 62  1  0
 28 63  1  0
 28 64  1  0
 28 65  1  0
 29 66  1  0
 30 67  1  0
 31 68  1  0
 34 69  1  0
 34 70  1  0
 36 71  1  0
M  END
$$$$
[H]c1c([H])c([H])c(C(=C2C(=O)N([H])c3c([H])c([H])c(N([H])C4([H])C([H])([H])C([H])([H])N(C([H])([H])[H])C([H])([H])C4([H])[H])c([H])c32)c2nc(-c3c([H])c([H])c(Br)c([H])c3[H])no2)c([H])c1[H]
     RDKit          3D

 63 68  0  0  0  0  0  0  0  0999 V2000
   -8.0216    0.6661   -0.5869 C   0  0  0  0  0  0  0  0  0  0  0  0
   -7.0492   -0.2008   -0.0554 N   0  0  0  0  0  0  0  0  0  0  0  0
   -6.5508    0.0305    1.2450 C   0  0  0  0  0  0  0  0  0  0  0  0
   -5.0943   -0.4587    1.3014 C   0  0  0  0  0  0  0  0  0  0  0  0
   -4.6502   -0.7222   -0.1070 C   0  0  0  0  0  0  0  0  0  0  0  0
   -5.4431   -1.9469   -0.5724 C   0  0  0  0  0  0  0  0  0  0  0  0
   -6.9132   -1.4996   -0.5852 C   0  0  0  0  0  0  0  0  0  0  0  0
   -3.2533   -0.8592   -0.3115 N   0  0  0  0  0  0  0  0  0  0  0  0
   -2.3573    0.2019   -0.1327 C   0  0  0  0  0  0  0  0  0  0  0  0
   -2.7586    1.4811    0.1696 C   0  0  0  0  0  0  0  0  0  0  0  0
   -1.8584    2.5051    0.3379 C   0  0  0  0  0  0  0  0  0  0  0  0
   -0.4874    2.2672    0.2035 C   0  0  0  0  0  0  0  0  0  0  0  0
    0.5880    3.1658    0.2972 N   0  0  0  0  0  0  0  0  0  0  0  0
    1.7583    2.4112    0.0403 C   0  0  0  0  0  0  0  0  0  0  0  0
    2.9335    2.8589    0.0274 O   0  0  0  0  0  0  0  0  0  0  0  0
    1.4248    0.9903   -0.2226 C   0  0  0  0  0  0  0  0  0  0  0  0
    2.2515    0.0583   -0.5427 C   0  0  0  0  0  0  0  0  0  0  0  0
    3.6909    0.2506   -0.7163 C   0  0  0  0  0  0  0  0  0  0  0  0
    4.5623    0.7041    0.1695 N   0  0  0  0  0  0  0  0  0  0  0  0
    5.8203    0.7407   -0.3695 C   0  0  0  0  0  0  0  0  0  0  0  0
    5.6397    0.2786   -1.6366 N   0  0  0  0  0  0  0  0  0  0  0  0
    4.3902   -0.0011   -1.8165 O   0  0  0  0  0  0  0  0  0  0  0  0
    7.0374    1.1697    0.2667 C   0  0  0  0  0  0  0  0  0  0  0  0
    7.0348    1.5916    1.5674 C   0  0  0  0  0  0  0  0  0  0  0  0
    8.2185    2.0150    2.1897 C   0  0  0  0  0  0  0  0  0  0  0  0
    9.3862    2.0076    1.4946 C   0  0  0  0  0  0  0  0  0  0  0  0
   11.0343    2.5801    2.3009 Br  0  0  0  0  0  0  0  0  0  0  0  0
    9.4112    1.5868    0.1846 C   0  0  0  0  0  0  0  0  0  0  0  0
    8.2184    1.1660   -0.4248 C   0  0  0  0  0  0  0  0  0  0  0  0
    1.8818   -1.3717   -0.6222 C   0  0  0  0  0  0  0  0  0  0  0  0
    1.5865   -2.1103    0.5302 C   0  0  0  0  0  0  0  0  0  0  0  0
    1.2582   -3.4475    0.4890 C   0  0  0  0  0  0  0  0  0  0  0  0
    1.2255   -4.0610   -0.7489 C   0  0  0  0  0  0  0  0  0  0  0  0
    1.5033   -3.3915   -1.8959 C   0  0  0  0  0  0  0  0  0  0  0  0
    1.8300   -2.0479   -1.8215 C   0  0  0  0  0  0  0  0  0  0  0  0
   -0.0624    0.9800   -0.1002 C   0  0  0  0  0  0  0  0  0  0  0  0
   -0.9768   -0.0107   -0.2619 C   0  0  0  0  0  0  0  0  0  0  0  0
   -7.4958    1.3638   -1.3075 H   0  0  0  0  0  0  0  0  0  0  0  0
   -8.7748    0.1557   -1.2454 H   0  0  0  0  0  0  0  0  0  0  0  0
   -8.4922    1.3283    0.1538 H   0  0  0  0  0  0  0  0  0  0  0  0
   -6.5022    1.0960    1.5152 H   0  0  0  0  0  0  0  0  0  0  0  0
   -7.1427   -0.4925    2.0292 H   0  0  0  0  0  0  0  0  0  0  0  0
   -4.4494    0.1765    1.9006 H   0  0  0  0  0  0  0  0  0  0  0  0
   -5.0939   -1.4739    1.8086 H   0  0  0  0  0  0  0  0  0  0  0  0
   -5.0846    0.1181   -0.7323 H   0  0  0  0  0  0  0  0  0  0  0  0
   -5.3270   -2.7670    0.1695 H   0  0  0  0  0  0  0  0  0  0  0  0
   -5.1666   -2.2761   -1.5718 H   0  0  0  0  0  0  0  0  0  0  0  0
   -7.5172   -2.2803   -0.0377 H   0  0  0  0  0  0  0  0  0  0  0  0
   -7.3064   -1.5273   -1.6355 H   0  0  0  0  0  0  0  0  0  0  0  0
   -2.8926   -1.7972   -0.6074 H   0  0  0  0  0  0  0  0  0  0  0  0
   -3.7965    1.7454    0.2801 H   0  0  0  0  0  0  0  0  0  0  0  0
   -2.1734    3.5171    0.5774 H   0  0  0  0  0  0  0  0  0  0  0  0
    0.5536    4.1714    0.5080 H   0  0  0  0  0  0  0  0  0  0  0  0
    6.1503    1.6278    2.1884 H   0  0  0  0  0  0  0  0  0  0  0  0
    8.1966    2.3417    3.2095 H   0  0  0  0  0  0  0  0  0  0  0  0
   10.3390    1.5782   -0.3769 H   0  0  0  0  0  0  0  0  0  0  0  0
    8.3098    0.8510   -1.4529 H   0  0  0  0  0  0  0  0  0  0  0  0
    1.6164   -1.6074    1.5055 H   0  0  0  0  0  0  0  0  0  0  0  0
    1.0309   -4.0057    1.4063 H   0  0  0  0  0  0  0  0  0  0  0  0
    0.9714   -5.1146   -0.8226 H   0  0  0  0  0  0  0  0  0  0  0  0
    1.4877   -3.8492   -2.8961 H   0  0  0  0  0  0  0  0  0  0  0  0
    2.0616   -1.4604   -2.7188 H   0  0  0  0  0  0  0  0  0  0  0  0
   -0.7112   -0.9978   -0.5279 H   0  0  0  0  0  0  0  0  0  0  0  0
  1  2  1  0
  2  3  1  0
  3  4  1  0
  4  5  1  0
  5  6  1  0
  6  7  1  0
  5  8  1  0
  8  9  1  0
  9 10  2  0
 10 11  1  0
 11 12  2  0
 12 13  1  0
 13 14  1  0
 14 15  2  0
 14 16  1  0
 16 17  2  3
 17 18  1  0
 18 19  2  0
 19 20  1  0
 20 21  2  0
 21 22  1  0
 20 23  1  0
 23 24  2  0
 24 25  1  0
 25 26  2  0
 26 27  1  0
 26 28  1  0
 28 29  2  0
 17 30  1  0
 30 31  2  0
 31 32  1  0
 32 33  2  0
 33 34  1  0
 34 35  2  0
 16 36  1  0
 36 37  2  0
  7  2  1  0
 37  9  1  0
 36 12  1  0
 22 18  1  0
 29 23  1  0
 35 30  1  0
  1 38  1  0
  1 39  1  0
  1 40  1  0
  3 41  1  0
  3 42  1  0
  4 43  1  0
  4 44  1  0
  5 45  1  0
  6 46  1  0
  6 47  1  0
  7 48  1  0
  7 49  1  0
  8 50  1  0
 10 51  1  0
 11 52  1  0
 13 53  1  0
 24 54  1  0
 25 55  1  0
 28 56  1  0
 29 57  1  0
 31 58  1  0
 32 59  1  0
 33 60  1  0
 34 61  1  0
 35 62  1  0
 37 63  1  0
M  END
$$$$
