[H]C1=C([H])C([H])(F)C([H])([H])C([H])=C1N([H])C(=O)C1(C(=O)N([H])c2c([H])c([H])c(Oc3c([H])c([H])nc4c([H])c(OC([H])([H])C([H])([H])C([H])([H])N5C([H])([H])C([H])([H])OC([H])([H])C5([H])[H])c(OC([H])([H])[H])c([H])c34)c(F)c2[H])C([H])([H])C1([H])[H]
     RDKit          3D

 82 87  0  0  0  0  0  0  0  0999 V2000
    3.9666    3.0495   -1.7322 C   0  0  0  0  0  0  0  0  0  0  0  0
    4.8184    1.9472   -1.5191 O   0  0  0  0  0  0  0  0  0  0  0  0
    4.2779    0.7150   -1.2054 C   0  0  0  0  0  0  0  0  0  0  0  0
    2.9355    0.4830   -1.0834 C   0  0  0  0  0  0  0  0  0  0  0  0
    2.5057   -0.7878   -0.7673 C   0  0  0  0  0  0  0  0  0  0  0  0
    1.1302   -1.0757   -0.6337 C   0  0  0  0  0  0  0  0  0  0  0  0
    0.2693   -0.0306   -0.8259 O   0  0  0  0  0  0  0  0  0  0  0  0
   -1.0898   -0.1642   -0.6451 C   0  0  0  0  0  0  0  0  0  0  0  0
   -1.9847   -0.0120   -1.6950 C   0  0  0  0  0  0  0  0  0  0  0  0
   -3.3381   -0.1282   -1.5809 C   0  0  0  0  0  0  0  0  0  0  0  0
   -3.8905   -0.4214   -0.3289 C   0  0  0  0  0  0  0  0  0  0  0  0
   -5.3238   -0.4986   -0.2135 N   0  0  0  0  0  0  0  0  0  0  0  0
   -5.9613   -1.3830    0.6262 C   0  0  0  0  0  0  0  0  0  0  0  0
   -5.1921   -2.1849    1.2964 O   0  0  0  0  0  0  0  0  0  0  0  0
   -7.4011   -1.5958    0.9101 C   0  0  0  0  0  0  0  0  0  0  0  0
   -7.6820   -2.4618    2.1265 C   0  0  0  0  0  0  0  0  0  0  0  0
   -7.8126   -3.1190    0.8294 C   0  0  0  0  0  0  0  0  0  0  0  0
   -8.4706   -0.6963    0.4763 C   0  0  0  0  0  0  0  0  0  0  0  0
   -9.6747   -1.1656    0.7176 O   0  0  0  0  0  0  0  0  0  0  0  0
   -8.4814    0.5528   -0.1324 N   0  0  0  0  0  0  0  0  0  0  0  0
   -9.7446    1.2195   -0.4499 C   0  0  0  0  0  0  0  0  0  0  0  0
   -9.9496    2.4040    0.0799 C   0  0  0  0  0  0  0  0  0  0  0  0
  -11.1350    3.2347   -0.1097 C   0  0  0  0  0  0  0  0  0  0  0  0
  -12.2008    2.6387   -0.9439 C   0  0  0  0  0  0  0  0  0  0  0  0
  -12.4721    3.4850   -2.0494 F   0  0  0  0  0  0  0  0  0  0  0  0
  -11.8730    1.3187   -1.4859 C   0  0  0  0  0  0  0  0  0  0  0  0
  -10.7586    0.6480   -1.2759 C   0  0  0  0  0  0  0  0  0  0  0  0
   -3.0432   -0.5784    0.7341 C   0  0  0  0  0  0  0  0  0  0  0  0
   -1.6522   -0.4525    0.5863 C   0  0  0  0  0  0  0  0  0  0  0  0
   -0.8827   -0.5957    1.6903 F   0  0  0  0  0  0  0  0  0  0  0  0
    0.7223   -2.3515   -0.3227 C   0  0  0  0  0  0  0  0  0  0  0  0
    1.6378   -3.3635   -0.1352 C   0  0  0  0  0  0  0  0  0  0  0  0
    2.9451   -3.0865   -0.2619 N   0  0  0  0  0  0  0  0  0  0  0  0
    3.3732   -1.8309   -0.5703 C   0  0  0  0  0  0  0  0  0  0  0  0
    4.7330   -1.5901   -0.6954 C   0  0  0  0  0  0  0  0  0  0  0  0
    5.1920   -0.3333   -1.0085 C   0  0  0  0  0  0  0  0  0  0  0  0
    6.5206   -0.0853   -1.1253 O   0  0  0  0  0  0  0  0  0  0  0  0
    7.5310   -0.9938   -0.8772 C   0  0  0  0  0  0  0  0  0  0  0  0
    7.6262   -1.3701    0.5948 C   0  0  0  0  0  0  0  0  0  0  0  0
    7.9359   -0.0985    1.3961 C   0  0  0  0  0  0  0  0  0  0  0  0
    9.1945    0.4265    0.9288 N   0  0  0  0  0  0  0  0  0  0  0  0
    9.4053    1.7864    1.4776 C   0  0  0  0  0  0  0  0  0  0  0  0
   10.8161    2.1639    1.0165 C   0  0  0  0  0  0  0  0  0  0  0  0
   11.2632    1.3549   -0.0281 O   0  0  0  0  0  0  0  0  0  0  0  0
   11.4615    0.0232    0.3872 C   0  0  0  0  0  0  0  0  0  0  0  0
   10.3466   -0.3576    1.3702 C   0  0  0  0  0  0  0  0  0  0  0  0
    4.5770    3.9509   -1.9692 H   0  0  0  0  0  0  0  0  0  0  0  0
    3.3066    3.2216   -0.8582 H   0  0  0  0  0  0  0  0  0  0  0  0
    3.3086    2.7911   -2.5987 H   0  0  0  0  0  0  0  0  0  0  0  0
    2.2243    1.2761   -1.2311 H   0  0  0  0  0  0  0  0  0  0  0  0
   -1.5528    0.2161   -2.6750 H   0  0  0  0  0  0  0  0  0  0  0  0
   -4.0246   -0.0039   -2.4200 H   0  0  0  0  0  0  0  0  0  0  0  0
   -5.8260    0.1518   -0.8369 H   0  0  0  0  0  0  0  0  0  0  0  0
   -6.8106   -2.7138    2.7607 H   0  0  0  0  0  0  0  0  0  0  0  0
   -8.5985   -2.2800    2.7131 H   0  0  0  0  0  0  0  0  0  0  0  0
   -7.0275   -3.7752    0.4011 H   0  0  0  0  0  0  0  0  0  0  0  0
   -8.7992   -3.3162    0.3639 H   0  0  0  0  0  0  0  0  0  0  0  0
   -7.6334    1.0911   -0.3743 H   0  0  0  0  0  0  0  0  0  0  0  0
   -9.1652    2.8388    0.7401 H   0  0  0  0  0  0  0  0  0  0  0  0
  -11.5358    3.5321    0.9159 H   0  0  0  0  0  0  0  0  0  0  0  0
  -10.8538    4.2484   -0.5572 H   0  0  0  0  0  0  0  0  0  0  0  0
  -13.1586    2.5647   -0.3407 H   0  0  0  0  0  0  0  0  0  0  0  0
  -12.6648    0.8691   -2.1323 H   0  0  0  0  0  0  0  0  0  0  0  0
  -10.6018   -0.3227   -1.7168 H   0  0  0  0  0  0  0  0  0  0  0  0
   -3.4037   -0.7893    1.7394 H   0  0  0  0  0  0  0  0  0  0  0  0
   -0.3200   -2.5956   -0.2356 H   0  0  0  0  0  0  0  0  0  0  0  0
    1.2680   -4.3480    0.1079 H   0  0  0  0  0  0  0  0  0  0  0  0
    5.3620   -2.4538   -0.5623 H   0  0  0  0  0  0  0  0  0  0  0  0
    7.4424   -1.9223   -1.5038 H   0  0  0  0  0  0  0  0  0  0  0  0
    8.4920   -0.5348   -1.2249 H   0  0  0  0  0  0  0  0  0  0  0  0
    6.7751   -1.8921    1.0071 H   0  0  0  0  0  0  0  0  0  0  0  0
    8.4922   -2.0400    0.6815 H   0  0  0  0  0  0  0  0  0  0  0  0
    7.1233    0.6400    1.3255 H   0  0  0  0  0  0  0  0  0  0  0  0
    8.0487   -0.4301    2.4644 H   0  0  0  0  0  0  0  0  0  0  0  0
    9.4079    1.7624    2.5778 H   0  0  0  0  0  0  0  0  0  0  0  0
    8.6320    2.4413    1.0296 H   0  0  0  0  0  0  0  0  0  0  0  0
   11.5508    2.0414    1.8480 H   0  0  0  0  0  0  0  0  0  0  0  0
   10.8264    3.2054    0.6080 H   0  0  0  0  0  0  0  0  0  0  0  0
   11.3001   -0.6008   -0.5146 H   0  0  0  0  0  0  0  0  0  0  0  0
   12.4569   -0.1361    0.8078 H   0  0  0  0  0  0  0  0  0  0  0  0
   10.1090   -1.3943    1.4038 H   0  0  0  0  0  0  0  0  0  0  0  0
   10.6797    0.0679    2.3647 H   0  0  0  0  0  0  0  0  0  0  0  0
  1  2  1  0
  2  3  1  0
  3  4  2  0
  4  5  1  0
  5  6  2  0
  6  7  1  0
  7  8  1  0
  8  9  2  0
  9 10  1  0
 10 11  2  0
 11 12  1  0
 12 13  1  0
 13 14  2  0
 13 15  1  0
 15 16  1  0
 16 17  1  0
 15 18  1  0
 18 19  2  0
 18 20  1  0
 20 21  1  0
 21 22  2  0
 22 23  1  0
 23 24  1  0
 24 25  1  0
 24 26  1  0
 26 27  2  0
 11 28  1  0
 28 29  2  0
 29 30  1  0
  6 31  1  0
 31 32  2  0
 32 33  1  0
 33 34  2  0
 34 35  1  0
 35 36  2  0
 36 37  1  0
 37 38  1  0
 38 39  1  0
 39 40  1  0
 40 41  1  0
 41 42  1  0
 42 43  1  0
 43 44  1  0
 44 45  1  0
 45 46  1  0
 36  3  1  0
 46 41  1  0
 34  5  1  0
 29  8  1  0
 17 15  1  0
 27 21  1  0
  1 47  1  0
  1 48  1  0
  1 49  1  0
  4 50  1  0
  9 51  1  0
 10 52  1  0
 12 53  1  0
 16 54  1  0
 16 55  1  0
 17 56  1  0
 17 57  1  0
 20 58  1  0
 22 59  1  0
 23 60  1  0
 23 61  1  0
 24 62  1  0
 26 63  1  0
 27 64  1  0
 28 65  1  0
 31 66  1  0
 32 67  1  0
 35 68  1  0
 38 69  1  0
 38 70  1  0
 39 71  1  0
 39 72  1  0
 40 73  1  0
 40 74  1  0
 42 75  1  0
 42 76  1  0
 43 77  1  0
 43 78  1  0
 45 79  1  0
 45 80  1  0
 46 81  1  0
 46 82  1  0
M  END
$$$$
[H]c1nc(N([H])[H])c2c(-c3c([H])c([H])c(N([H])C(=O)c4c([H])c([H])c([H])n(-c5c([H])c([H])c([H])c([H])c5[H])c4=O)c([H])c3[H])c([H])c(C3([H])C([H])([H])C([H])([H])N(C(=O)C([H])([H])[H])C([H])([H])C3([H])[H])n2n1
     RDKit          3D

 70 75  0  0  0  0  0  0  0  0999 V2000
    8.7674    2.7521    0.6734 C   0  0  0  0  0  0  0  0  0  0  0  0
    8.4674    1.3731    1.1052 C   0  0  0  0  0  0  0  0  0  0  0  0
    8.8833    0.9462    2.1926 O   0  0  0  0  0  0  0  0  0  0  0  0
    7.6990    0.5426    0.2656 N   0  0  0  0  0  0  0  0  0  0  0  0
    7.1864    0.9900   -1.0271 C   0  0  0  0  0  0  0  0  0  0  0  0
    5.7464    0.5613   -1.1763 C   0  0  0  0  0  0  0  0  0  0  0  0
    5.6586   -0.9838   -1.2326 C   0  0  0  0  0  0  0  0  0  0  0  0
    6.8700   -1.5240   -0.6091 C   0  0  0  0  0  0  0  0  0  0  0  0
    7.3544   -0.8253    0.6360 C   0  0  0  0  0  0  0  0  0  0  0  0
    4.3601   -1.2945   -0.5860 C   0  0  0  0  0  0  0  0  0  0  0  0
    3.1987   -0.6063   -0.8671 C   0  0  0  0  0  0  0  0  0  0  0  0
    2.1711   -1.1510   -0.1014 C   0  0  0  0  0  0  0  0  0  0  0  0
    0.7688   -0.7072   -0.1600 C   0  0  0  0  0  0  0  0  0  0  0  0
   -0.2148   -1.5548   -0.6233 C   0  0  0  0  0  0  0  0  0  0  0  0
   -1.5184   -1.1220   -0.6817 C   0  0  0  0  0  0  0  0  0  0  0  0
   -1.9091    0.1638   -0.2867 C   0  0  0  0  0  0  0  0  0  0  0  0
   -3.2628    0.5129   -0.3777 N   0  0  0  0  0  0  0  0  0  0  0  0
   -3.8209    1.8087   -0.4420 C   0  0  0  0  0  0  0  0  0  0  0  0
   -3.0847    2.8360   -0.4350 O   0  0  0  0  0  0  0  0  0  0  0  0
   -5.2607    2.0588   -0.5267 C   0  0  0  0  0  0  0  0  0  0  0  0
   -5.6325    3.1703   -1.2773 C   0  0  0  0  0  0  0  0  0  0  0  0
   -6.9716    3.3969   -1.4619 C   0  0  0  0  0  0  0  0  0  0  0  0
   -7.8967    2.5428   -0.9159 C   0  0  0  0  0  0  0  0  0  0  0  0
   -7.5486    1.4502   -0.1762 N   0  0  0  0  0  0  0  0  0  0  0  0
   -8.5648    0.6177    0.3638 C   0  0  0  0  0  0  0  0  0  0  0  0
   -9.7463    1.2445    0.8114 C   0  0  0  0  0  0  0  0  0  0  0  0
  -10.7602    0.4912    1.3484 C   0  0  0  0  0  0  0  0  0  0  0  0
  -10.7090   -0.8787    1.4888 C   0  0  0  0  0  0  0  0  0  0  0  0
   -9.5388   -1.4978    1.0454 C   0  0  0  0  0  0  0  0  0  0  0  0
   -8.5032   -0.7432    0.4978 C   0  0  0  0  0  0  0  0  0  0  0  0
   -6.2313    1.2394   -0.0010 C   0  0  0  0  0  0  0  0  0  0  0  0
   -5.8952    0.2440    0.6828 O   0  0  0  0  0  0  0  0  0  0  0  0
   -0.9163    0.9764    0.1661 C   0  0  0  0  0  0  0  0  0  0  0  0
    0.4139    0.5521    0.2326 C   0  0  0  0  0  0  0  0  0  0  0  0
    2.7309   -2.1541    0.6258 C   0  0  0  0  0  0  0  0  0  0  0  0
    2.1854   -3.0267    1.5582 C   0  0  0  0  0  0  0  0  0  0  0  0
    0.8181   -2.9367    1.9040 N   0  0  0  0  0  0  0  0  0  0  0  0
    2.9953   -3.9353    2.1366 N   0  0  0  0  0  0  0  0  0  0  0  0
    4.2926   -3.9793    1.8078 C   0  0  0  0  0  0  0  0  0  0  0  0
    4.8413   -3.1515    0.9174 N   0  0  0  0  0  0  0  0  0  0  0  0
    4.0709   -2.2393    0.3254 N   0  0  0  0  0  0  0  0  0  0  0  0
    9.6159    3.1572    1.2840 H   0  0  0  0  0  0  0  0  0  0  0  0
    7.8708    3.3659    0.9747 H   0  0  0  0  0  0  0  0  0  0  0  0
    8.9829    2.8510   -0.4063 H   0  0  0  0  0  0  0  0  0  0  0  0
    7.2033    2.0821   -1.0408 H   0  0  0  0  0  0  0  0  0  0  0  0
    7.8289    0.6409   -1.8637 H   0  0  0  0  0  0  0  0  0  0  0  0
    5.2074    0.9326   -0.2798 H   0  0  0  0  0  0  0  0  0  0  0  0
    5.3300    1.0187   -2.0954 H   0  0  0  0  0  0  0  0  0  0  0  0
    5.6198   -1.1981   -2.3266 H   0  0  0  0  0  0  0  0  0  0  0  0
    7.7150   -1.3599   -1.3627 H   0  0  0  0  0  0  0  0  0  0  0  0
    6.8953   -2.6265   -0.4741 H   0  0  0  0  0  0  0  0  0  0  0  0
    6.6507   -0.8191    1.4699 H   0  0  0  0  0  0  0  0  0  0  0  0
    8.3307   -1.3103    0.9049 H   0  0  0  0  0  0  0  0  0  0  0  0
    3.0537    0.2115   -1.5454 H   0  0  0  0  0  0  0  0  0  0  0  0
   -0.0041   -2.5672   -0.9616 H   0  0  0  0  0  0  0  0  0  0  0  0
   -2.3051   -1.7979   -1.0506 H   0  0  0  0  0  0  0  0  0  0  0  0
   -3.9811   -0.2888   -0.4252 H   0  0  0  0  0  0  0  0  0  0  0  0
   -4.8819    3.8233   -1.6913 H   0  0  0  0  0  0  0  0  0  0  0  0
   -7.2636    4.2714   -2.0536 H   0  0  0  0  0  0  0  0  0  0  0  0
   -8.9499    2.7247   -1.0712 H   0  0  0  0  0  0  0  0  0  0  0  0
   -9.8315    2.3191    0.7198 H   0  0  0  0  0  0  0  0  0  0  0  0
  -11.6689    0.9820    1.6893 H   0  0  0  0  0  0  0  0  0  0  0  0
  -11.5019   -1.4765    1.9097 H   0  0  0  0  0  0  0  0  0  0  0  0
   -9.4625   -2.5682    1.1415 H   0  0  0  0  0  0  0  0  0  0  0  0
   -7.6185   -1.2679    0.1547 H   0  0  0  0  0  0  0  0  0  0  0  0
   -1.1151    1.9653    0.4978 H   0  0  0  0  0  0  0  0  0  0  0  0
    1.2113    1.1979    0.5962 H   0  0  0  0  0  0  0  0  0  0  0  0
    0.0918   -3.6568    1.7227 H   0  0  0  0  0  0  0  0  0  0  0  0
    0.5134   -2.0502    2.3957 H   0  0  0  0  0  0  0  0  0  0  0  0
    4.9692   -4.7156    2.2671 H   0  0  0  0  0  0  0  0  0  0  0  0
  1  2  1  0
  2  3  2  0
  2  4  1  0
  4  5  1  0
  5  6  1  0
  6  7  1  0
  7  8  1  0
  8  9  1  0
  7 10  1  0
 10 11  2  0
 11 12  1  0
 12 13  1  0
 13 14  2  0
 14 15  1  0
 15 16  2  0
 16 17  1  0
 17 18  1  0
 18 19  2  0
 18 20  1  0
 20 21  2  0
 21 22  1  0
 22 23  2  0
 23 24  1  0
 24 25  1  0
 25 26  2  0
 26 27  1  0
 27 28  2  0
 28 29  1  0
 29 30  2  0
 24 31  1  0
 31 32  2  0
 16 33  1  0
 33 34  2  0
 12 35  2  0
 35 36  1  0
 36 37  1  0
 36 38  2  0
 38 39  1  0
 39 40  2  0
 40 41  1  0
  9  4  1  0
 41 10  1  0
 34 13  1  0
 41 35  1  0
 31 20  1  0
 30 25  1  0
  1 42  1  0
  1 43  1  0
  1 44  1  0
  5 45  1  0
  5 46  1  0
  6 47  1  0
  6 48  1  0
  7 49  1  0
  8 50  1  0
  8 51  1  0
  9 52  1  0
  9 53  1  0
 11 54  1  0
 14 55  1  0
 15 56  1  0
 17 57  1  0
 21 58  1  0
 22 59  1  0
 23 60  1  0
 26 61  1  0
 27 62  1  0
 28 63  1  0
 29 64  1  0
 30 65  1  0
 33 66  1  0
 34 67  1  0
 37 68  1  0
 37 69  1  0
 39 70  1  0
M  END
$$$$
[H]c1nc2c([H])c([H])c([H])c([H])n2c1C#Cc1c([H])c(C(=O)N([H])c2c([H])c([H])c(C([H])([H])N3C([H])([H])C([H])([H])N(C([H])([H])[H])C([H])([H])C3([H])[H])c(C(F)(F)F)c2[H])c([H])c([H])c1C([H])([H])[H]
     RDKit          3D

 67 71  0  0  0  0  0  0  0  0999 V2000
   -8.5742    1.6981    1.0271 C   0  0  0  0  0  0  0  0  0  0  0  0
   -8.4935    0.2948    1.3032 N   0  0  0  0  0  0  0  0  0  0  0  0
   -7.5100   -0.0987    2.2489 C   0  0  0  0  0  0  0  0  0  0  0  0
   -6.1897   -0.5298    1.6797 C   0  0  0  0  0  0  0  0  0  0  0  0
   -6.2732   -1.3599    0.5217 N   0  0  0  0  0  0  0  0  0  0  0  0
   -5.8227   -0.7384   -0.6897 C   0  0  0  0  0  0  0  0  0  0  0  0
   -4.4030   -0.4161   -0.7877 C   0  0  0  0  0  0  0  0  0  0  0  0
   -3.4720   -0.6992    0.1898 C   0  0  0  0  0  0  0  0  0  0  0  0
   -2.1111   -0.3824    0.0484 C   0  0  0  0  0  0  0  0  0  0  0  0
   -1.6288    0.2291   -1.0770 C   0  0  0  0  0  0  0  0  0  0  0  0
   -0.2722    0.5682   -1.3081 N   0  0  0  0  0  0  0  0  0  0  0  0
    0.8552    0.2067   -0.5793 C   0  0  0  0  0  0  0  0  0  0  0  0
    0.7749   -0.5173    0.4331 O   0  0  0  0  0  0  0  0  0  0  0  0
    2.2075    0.6393   -0.9359 C   0  0  0  0  0  0  0  0  0  0  0  0
    2.4409    1.6499   -1.8393 C   0  0  0  0  0  0  0  0  0  0  0  0
    3.7159    2.0794   -2.2042 C   0  0  0  0  0  0  0  0  0  0  0  0
    4.7852    1.4410   -1.6136 C   0  0  0  0  0  0  0  0  0  0  0  0
    6.1953    1.8216   -1.9322 C   0  0  0  0  0  0  0  0  0  0  0  0
    4.6028    0.4146   -0.6950 C   0  0  0  0  0  0  0  0  0  0  0  0
    3.3184    0.0403   -0.3800 C   0  0  0  0  0  0  0  0  0  0  0  0
    5.7181   -0.2544   -0.0760 C   0  0  0  0  0  0  0  0  0  0  0  0
    6.6539   -0.8302    0.4357 C   0  0  0  0  0  0  0  0  0  0  0  0
    7.7669   -1.5365    1.0307 C   0  0  0  0  0  0  0  0  0  0  0  0
    7.9026   -2.8945    1.0339 C   0  0  0  0  0  0  0  0  0  0  0  0
    9.0507   -3.1553    1.6734 N   0  0  0  0  0  0  0  0  0  0  0  0
    9.6236   -2.0064    2.0622 C   0  0  0  0  0  0  0  0  0  0  0  0
   10.7847   -1.6862    2.7406 C   0  0  0  0  0  0  0  0  0  0  0  0
   11.1522   -0.4051    3.0197 C   0  0  0  0  0  0  0  0  0  0  0  0
   10.3216    0.6071    2.6020 C   0  0  0  0  0  0  0  0  0  0  0  0
    9.1709    0.2900    1.9296 C   0  0  0  0  0  0  0  0  0  0  0  0
    8.8264   -1.0061    1.6629 N   0  0  0  0  0  0  0  0  0  0  0  0
   -2.5803    0.5064   -2.0514 C   0  0  0  0  0  0  0  0  0  0  0  0
   -3.9237    0.1996   -1.9240 C   0  0  0  0  0  0  0  0  0  0  0  0
   -4.8458    0.5340   -3.0345 C   0  0  0  0  0  0  0  0  0  0  0  0
   -5.8544    1.3860   -2.7265 F   0  0  0  0  0  0  0  0  0  0  0  0
   -5.2712   -0.6077   -3.7319 F   0  0  0  0  0  0  0  0  0  0  0  0
   -4.1012    1.2201   -4.0241 F   0  0  0  0  0  0  0  0  0  0  0  0
   -7.6626   -1.7297    0.3338 C   0  0  0  0  0  0  0  0  0  0  0  0
   -8.5679   -0.5553    0.1620 C   0  0  0  0  0  0  0  0  0  0  0  0
   -9.2316    2.1596    1.8009 H   0  0  0  0  0  0  0  0  0  0  0  0
   -7.5872    2.2031    1.0283 H   0  0  0  0  0  0  0  0  0  0  0  0
   -9.1092    1.8146    0.0524 H   0  0  0  0  0  0  0  0  0  0  0  0
   -7.9349   -0.8699    2.9240 H   0  0  0  0  0  0  0  0  0  0  0  0
   -7.2971    0.7911    2.9042 H   0  0  0  0  0  0  0  0  0  0  0  0
   -5.6985   -1.1348    2.4943 H   0  0  0  0  0  0  0  0  0  0  0  0
   -5.5626    0.3720    1.5271 H   0  0  0  0  0  0  0  0  0  0  0  0
   -6.3662    0.2646   -0.6822 H   0  0  0  0  0  0  0  0  0  0  0  0
   -6.2581   -1.2397   -1.5936 H   0  0  0  0  0  0  0  0  0  0  0  0
   -3.7808   -1.1954    1.1014 H   0  0  0  0  0  0  0  0  0  0  0  0
   -1.4616   -0.6325    0.8631 H   0  0  0  0  0  0  0  0  0  0  0  0
   -0.0890    1.1900   -2.1635 H   0  0  0  0  0  0  0  0  0  0  0  0
    1.6143    2.1780   -2.3218 H   0  0  0  0  0  0  0  0  0  0  0  0
    3.8929    2.8720   -2.9129 H   0  0  0  0  0  0  0  0  0  0  0  0
    6.2901    2.9217   -2.0708 H   0  0  0  0  0  0  0  0  0  0  0  0
    6.8607    1.5623   -1.0856 H   0  0  0  0  0  0  0  0  0  0  0  0
    6.4911    1.2589   -2.8349 H   0  0  0  0  0  0  0  0  0  0  0  0
    3.1346   -0.7692    0.3433 H   0  0  0  0  0  0  0  0  0  0  0  0
    7.1993   -3.6103    0.5945 H   0  0  0  0  0  0  0  0  0  0  0  0
   11.4321   -2.4902    3.0653 H   0  0  0  0  0  0  0  0  0  0  0  0
   12.0553   -0.1553    3.5474 H   0  0  0  0  0  0  0  0  0  0  0  0
   10.5709    1.6324    2.7999 H   0  0  0  0  0  0  0  0  0  0  0  0
    8.4984    1.0692    1.5892 H   0  0  0  0  0  0  0  0  0  0  0  0
   -2.2251    0.9962   -2.9674 H   0  0  0  0  0  0  0  0  0  0  0  0
   -7.6988   -2.3154   -0.6225 H   0  0  0  0  0  0  0  0  0  0  0  0
   -8.0626   -2.3566    1.1487 H   0  0  0  0  0  0  0  0  0  0  0  0
   -9.6019   -0.9693    0.0320 H   0  0  0  0  0  0  0  0  0  0  0  0
   -8.3850    0.0358   -0.7578 H   0  0  0  0  0  0  0  0  0  0  0  0
  1  2  1  0
  2  3  1  0
  3  4  1  0
  4  5  1  0
  5  6  1  0
  6  7  1  0
  7  8  2  0
  8  9  1  0
  9 10  2  0
 10 11  1  0
 11 12  1  0
 12 13  2  0
 12 14  1  0
 14 15  2  0
 15 16  1  0
 16 17  2  0
 17 18  1  0
 17 19  1  0
 19 20  2  0
 19 21  1  0
 21 22  3  0
 22 23  1  0
 23 24  2  0
 24 25  1  0
 25 26  2  0
 26 27  1  0
 27 28  2  0
 28 29  1  0
 29 30  2  0
 30 31  1  0
 10 32  1  0
 32 33  2  0
 33 34  1  0
 34 35  1  0
 34 36  1  0
 34 37  1  0
  5 38  1  0
 38 39  1  0
 39  2  1  0
 33  7  1  0
 20 14  1  0
 31 23  1  0
 31 26  1  0
  1 40  1  0
  1 41  1  0
  1 42  1  0
  3 43  1  0
  3 44  1  0
  4 45  1  0
  4 46  1  0
  6 47  1  0
  6 48  1  0
  8 49  1  0
  9 50  1  0
 11 51  1  0
 15 52  1  0
 16 53  1  0
 18 54  1  0
 18 55  1  0
 18 56  1  0
 20 57  1  0
 24 58  1  0
 27 59  1  0
 28 60  1  0
 29 61  1  0
 30 62  1  0
 32 63  1  0
 38 64  1  0
 38 65  1  0
 39 66  1  0
 39 67  1  0
M  END
$$$$
[H]O[C@]1([H])C([H])([H])C([H])([H])[C@@]([H])(n2c([H])c(-c3c([H])c([H])c(S(=O)(=O)C([H])([H])[H])c([H])c3[H])c3c([H])nc(N([H])C([H])([H])C([H])([H])C([H])([H])C([H])([H])[H])nc32)C([H])([H])C1([H])[H]
     RDKit          3D

 61 64  0  0  0  0  0  0  0  0999 V2000
    6.5741    2.5927    0.4335 C   0  0  0  0  0  0  0  0  0  0  0  0
    5.1158    2.8881    0.6666 C   0  0  0  0  0  0  0  0  0  0  0  0
    4.3844    3.2172   -0.6210 C   0  0  0  0  0  0  0  0  0  0  0  0
    4.4426    2.0945   -1.6001 C   0  0  0  0  0  0  0  0  0  0  0  0
    3.8611    0.8784   -1.1076 N   0  0  0  0  0  0  0  0  0  0  0  0
    2.4800    0.7904   -0.8138 C   0  0  0  0  0  0  0  0  0  0  0  0
    1.6176    1.7967   -0.9690 N   0  0  0  0  0  0  0  0  0  0  0  0
    0.3193    1.6615   -0.6760 C   0  0  0  0  0  0  0  0  0  0  0  0
   -0.1538    0.4531   -0.1995 C   0  0  0  0  0  0  0  0  0  0  0  0
   -1.3951    0.0180    0.1786 C   0  0  0  0  0  0  0  0  0  0  0  0
   -1.2375   -1.2933    0.5670 C   0  0  0  0  0  0  0  0  0  0  0  0
    0.0365   -1.6764    0.4440 N   0  0  0  0  0  0  0  0  0  0  0  0
    0.6604   -2.9526    0.7314 C   0  0  1  0  0  0  0  0  0  0  0  0
   -0.2753   -3.9259    1.3596 C   0  0  0  0  0  0  0  0  0  0  0  0
    0.1105   -5.3572    0.9621 C   0  0  0  0  0  0  0  0  0  0  0  0
   -0.2650   -5.4839   -0.5097 C   0  0  2  0  0  0  0  0  0  0  0  0
    0.2281   -6.6340   -1.0850 O   0  0  0  0  0  0  0  0  0  0  0  0
    0.2146   -4.2703   -1.2842 C   0  0  0  0  0  0  0  0  0  0  0  0
    1.2867   -3.5699   -0.4845 C   0  0  0  0  0  0  0  0  0  0  0  0
    0.7157   -0.6055   -0.0289 C   0  0  0  0  0  0  0  0  0  0  0  0
    2.0031   -0.3849   -0.3470 N   0  0  0  0  0  0  0  0  0  0  0  0
   -2.6327    0.7860    0.1700 C   0  0  0  0  0  0  0  0  0  0  0  0
   -2.9752    1.5550   -0.9013 C   0  0  0  0  0  0  0  0  0  0  0  0
   -4.1637    2.2696   -0.8624 C   0  0  0  0  0  0  0  0  0  0  0  0
   -4.9685    2.1865    0.2539 C   0  0  0  0  0  0  0  0  0  0  0  0
   -4.6102    1.4063    1.3277 C   0  0  0  0  0  0  0  0  0  0  0  0
   -3.4348    0.6974    1.2934 C   0  0  0  0  0  0  0  0  0  0  0  0
   -6.4807    3.0763    0.3407 S   0  0  0  0  0  0  0  0  0  0  0  0
   -6.1990    4.6855    1.0476 C   0  0  0  0  0  0  0  0  0  0  0  0
   -7.4571    2.2892    1.1457 O   0  0  0  0  0  0  0  0  0  0  0  0
   -6.9927    3.2271   -1.0497 O   0  0  0  0  0  0  0  0  0  0  0  0
    6.7557    1.8540   -0.3626 H   0  0  0  0  0  0  0  0  0  0  0  0
    7.0677    3.5505    0.1205 H   0  0  0  0  0  0  0  0  0  0  0  0
    7.0012    2.2559    1.3913 H   0  0  0  0  0  0  0  0  0  0  0  0
    4.6170    2.0974    1.2348 H   0  0  0  0  0  0  0  0  0  0  0  0
    5.0753    3.8148    1.2981 H   0  0  0  0  0  0  0  0  0  0  0  0
    3.3751    3.5255   -0.3732 H   0  0  0  0  0  0  0  0  0  0  0  0
    4.9195    4.1072   -1.0513 H   0  0  0  0  0  0  0  0  0  0  0  0
    3.8738    2.4175   -2.5207 H   0  0  0  0  0  0  0  0  0  0  0  0
    5.4834    1.9290   -1.9592 H   0  0  0  0  0  0  0  0  0  0  0  0
    4.4592    0.0134   -0.9525 H   0  0  0  0  0  0  0  0  0  0  0  0
   -0.3338    2.4870   -0.8131 H   0  0  0  0  0  0  0  0  0  0  0  0
   -2.0497   -1.9083    0.9200 H   0  0  0  0  0  0  0  0  0  0  0  0
    1.5002   -2.7824    1.4671 H   0  0  0  0  0  0  0  0  0  0  0  0
   -0.2585   -3.8177    2.4734 H   0  0  0  0  0  0  0  0  0  0  0  0
   -1.3337   -3.8145    1.0414 H   0  0  0  0  0  0  0  0  0  0  0  0
   -0.5626   -6.0260    1.5315 H   0  0  0  0  0  0  0  0  0  0  0  0
    1.1584   -5.5756    1.1581 H   0  0  0  0  0  0  0  0  0  0  0  0
   -1.3899   -5.4483   -0.5270 H   0  0  0  0  0  0  0  0  0  0  0  0
   -0.3269   -6.8082   -1.9040 H   0  0  0  0  0  0  0  0  0  0  0  0
    0.6591   -4.5535   -2.2541 H   0  0  0  0  0  0  0  0  0  0  0  0
   -0.6009   -3.5482   -1.4710 H   0  0  0  0  0  0  0  0  0  0  0  0
    2.0710   -4.3073   -0.1641 H   0  0  0  0  0  0  0  0  0  0  0  0
    1.7960   -2.8513   -1.1427 H   0  0  0  0  0  0  0  0  0  0  0  0
   -2.3502    1.6188   -1.7689 H   0  0  0  0  0  0  0  0  0  0  0  0
   -4.4779    2.8882   -1.6780 H   0  0  0  0  0  0  0  0  0  0  0  0
   -5.2546    1.3526    2.1966 H   0  0  0  0  0  0  0  0  0  0  0  0
   -3.1595    0.0819    2.1493 H   0  0  0  0  0  0  0  0  0  0  0  0
   -6.1930    4.5792    2.1547 H   0  0  0  0  0  0  0  0  0  0  0  0
   -5.2701    5.1293    0.6695 H   0  0  0  0  0  0  0  0  0  0  0  0
   -7.0606    5.3238    0.7540 H   0  0  0  0  0  0  0  0  0  0  0  0
  1  2  1  0
  2  3  1  0
  3  4  1  0
  4  5  1  0
  5  6  1  0
  6  7  2  0
  7  8  1  0
  8  9  2  0
  9 10  1  0
 10 11  2  0
 11 12  1  0
 12 13  1  0
 13 14  1  0
 14 15  1  0
 15 16  1  0
 16 17  1  0
 16 18  1  0
 18 19  1  0
 12 20  1  0
 20 21  2  0
 10 22  1  0
 22 23  2  0
 23 24  1  0
 24 25  2  0
 25 26  1  0
 26 27  2  0
 25 28  1  0
 28 29  1  0
 28 30  2  0
 28 31  2  0
 21  6  1  0
 27 22  1  0
 20  9  1  0
 19 13  1  0
  1 32  1  0
  1 33  1  0
  1 34  1  0
  2 35  1  0
  2 36  1  0
  3 37  1  0
  3 38  1  0
  4 39  1  0
  4 40  1  0
  5 41  1  0
  8 42  1  0
 11 43  1  0
 13 44  1  1
 14 45  1  0
 14 46  1  0
 15 47  1  0
 15 48  1  0
 16 49  1  1
 17 50  1  0
 18 51  1  0
 18 52  1  0
 19 53  1  0
 19 54  1  0
 23 55  1  0
 24 56  1  0
 26 57  1  0
 27 58  1  0
 29 59  1  0
 29 60  1  0
 29 61  1  0
M  END
$$$$
[H]C1=C([H])C([H])(F)C([H])([H])C([H])=C1N([H])C(=O)C1(C(=O)N([H])c2c([H])c([H])c(Oc3c([H])c([H])nc4c([H])c(OC([H])([H])C([H])([H])C([H])([H])N5C([H])([H])C([H])([H])N(C([H])([H])[H])C([H])([H])C5([H])[H])c(OC([H])([H])[H])c([H])c34)c(F)c2[H])C([H])([H])C1([H])[H]
     RDKit          3D

 86 91  0  0  0  0  0  0  0  0999 V2000
    4.0867   -2.2079    1.2558 C   0  0  0  0  0  0  0  0  0  0  0  0
    4.5964   -1.7919    0.0038 O   0  0  0  0  0  0  0  0  0  0  0  0
    3.7510   -1.1170   -0.8556 C   0  0  0  0  0  0  0  0  0  0  0  0
    2.4528   -0.8639   -0.4970 C   0  0  0  0  0  0  0  0  0  0  0  0
    1.6185   -0.1926   -1.3583 C   0  0  0  0  0  0  0  0  0  0  0  0
    0.3165    0.0411   -0.9579 C   0  0  0  0  0  0  0  0  0  0  0  0
   -0.1443   -0.3926    0.2766 O   0  0  0  0  0  0  0  0  0  0  0  0
   -1.4136   -0.2900    0.7642 C   0  0  0  0  0  0  0  0  0  0  0  0
   -1.7361    0.4631    1.8817 C   0  0  0  0  0  0  0  0  0  0  0  0
   -3.0164    0.5329    2.3341 C   0  0  0  0  0  0  0  0  0  0  0  0
   -4.0984   -0.1315    1.7281 C   0  0  0  0  0  0  0  0  0  0  0  0
   -5.3722    0.0048    2.2756 N   0  0  0  0  0  0  0  0  0  0  0  0
   -6.5324   -0.6319    1.8337 C   0  0  0  0  0  0  0  0  0  0  0  0
   -6.6351   -1.4437    0.8577 O   0  0  0  0  0  0  0  0  0  0  0  0
   -7.8496   -0.3945    2.5344 C   0  0  0  0  0  0  0  0  0  0  0  0
   -7.8362   -0.0976    3.9672 C   0  0  0  0  0  0  0  0  0  0  0  0
   -8.2207   -1.4625    3.5571 C   0  0  0  0  0  0  0  0  0  0  0  0
   -8.9634    0.0748    1.6803 C   0  0  0  0  0  0  0  0  0  0  0  0
  -10.1142    0.2212    2.2058 O   0  0  0  0  0  0  0  0  0  0  0  0
   -8.8512    0.3722    0.3227 N   0  0  0  0  0  0  0  0  0  0  0  0
   -9.9815    0.8073   -0.4732 C   0  0  0  0  0  0  0  0  0  0  0  0
  -10.3291    0.0684   -1.5024 C   0  0  0  0  0  0  0  0  0  0  0  0
  -11.4313    0.3663   -2.3957 C   0  0  0  0  0  0  0  0  0  0  0  0
  -12.2501    1.5436   -2.0631 C   0  0  0  0  0  0  0  0  0  0  0  0
  -13.5880    1.1058   -1.8641 F   0  0  0  0  0  0  0  0  0  0  0  0
  -11.8000    2.3168   -0.9110 C   0  0  0  0  0  0  0  0  0  0  0  0
  -10.7631    1.9750   -0.1863 C   0  0  0  0  0  0  0  0  0  0  0  0
   -3.7643   -0.8698    0.6265 C   0  0  0  0  0  0  0  0  0  0  0  0
   -2.4386   -0.9505    0.1489 C   0  0  0  0  0  0  0  0  0  0  0  0
   -2.2116   -1.7494   -0.9484 F   0  0  0  0  0  0  0  0  0  0  0  0
   -0.5097    0.7093   -1.8126 C   0  0  0  0  0  0  0  0  0  0  0  0
   -0.0090    1.1263   -3.0529 C   0  0  0  0  0  0  0  0  0  0  0  0
    1.2621    0.8758   -3.3978 N   0  0  0  0  0  0  0  0  0  0  0  0
    2.1278    0.2103   -2.5731 C   0  0  0  0  0  0  0  0  0  0  0  0
    3.4219   -0.0368   -2.9428 C   0  0  0  0  0  0  0  0  0  0  0  0
    4.3056   -0.7231   -2.0866 C   0  0  0  0  0  0  0  0  0  0  0  0
    5.5434   -0.9906   -2.3747 O   0  0  0  0  0  0  0  0  0  0  0  0
    6.7666   -1.2496   -2.6706 C   0  0  0  0  0  0  0  0  0  0  0  0
    7.6637   -0.0309   -2.9366 C   0  0  0  0  0  0  0  0  0  0  0  0
    7.7387    0.8690   -1.7317 C   0  0  0  0  0  0  0  0  0  0  0  0
    8.2814    0.1493   -0.5738 N   0  0  0  0  0  0  0  0  0  0  0  0
    9.6712   -0.1102   -0.8874 C   0  0  0  0  0  0  0  0  0  0  0  0
   10.4563   -0.5360    0.3248 C   0  0  0  0  0  0  0  0  0  0  0  0
   10.3302    0.5184    1.3061 N   0  0  0  0  0  0  0  0  0  0  0  0
   11.2619    0.3531    2.4092 C   0  0  0  0  0  0  0  0  0  0  0  0
    8.9530    0.5410    1.7546 C   0  0  0  0  0  0  0  0  0  0  0  0
    8.0950    0.9600    0.5801 C   0  0  0  0  0  0  0  0  0  0  0  0
    3.2827   -2.9251    1.0805 H   0  0  0  0  0  0  0  0  0  0  0  0
    3.6337   -1.3520    1.8199 H   0  0  0  0  0  0  0  0  0  0  0  0
    4.9064   -2.5881    1.8996 H   0  0  0  0  0  0  0  0  0  0  0  0
    2.0485   -1.1854    0.4742 H   0  0  0  0  0  0  0  0  0  0  0  0
   -0.9076    0.9863    2.3687 H   0  0  0  0  0  0  0  0  0  0  0  0
   -3.2400    1.1356    3.2215 H   0  0  0  0  0  0  0  0  0  0  0  0
   -5.4900    0.6543    3.1135 H   0  0  0  0  0  0  0  0  0  0  0  0
   -6.8613    0.0338    4.4739 H   0  0  0  0  0  0  0  0  0  0  0  0
   -8.6392    0.5121    4.4436 H   0  0  0  0  0  0  0  0  0  0  0  0
   -7.4751   -2.2684    3.7570 H   0  0  0  0  0  0  0  0  0  0  0  0
   -9.2865   -1.7668    3.6019 H   0  0  0  0  0  0  0  0  0  0  0  0
   -7.9645    0.3068   -0.1841 H   0  0  0  0  0  0  0  0  0  0  0  0
   -9.7122   -0.8497   -1.6756 H   0  0  0  0  0  0  0  0  0  0  0  0
  -11.0278    0.4385   -3.4547 H   0  0  0  0  0  0  0  0  0  0  0  0
  -12.1099   -0.5473   -2.4105 H   0  0  0  0  0  0  0  0  0  0  0  0
  -12.3668    2.2191   -2.9747 H   0  0  0  0  0  0  0  0  0  0  0  0
  -12.3187    3.2373   -0.5892 H   0  0  0  0  0  0  0  0  0  0  0  0
  -10.4489    2.5836    0.6810 H   0  0  0  0  0  0  0  0  0  0  0  0
   -4.5126   -1.4111    0.0878 H   0  0  0  0  0  0  0  0  0  0  0  0
   -1.5372    0.9348   -1.5422 H   0  0  0  0  0  0  0  0  0  0  0  0
   -0.6941    1.6536   -3.7081 H   0  0  0  0  0  0  0  0  0  0  0  0
    3.8123    0.2765   -3.8873 H   0  0  0  0  0  0  0  0  0  0  0  0
    7.3805   -1.8992   -1.9782 H   0  0  0  0  0  0  0  0  0  0  0  0
    6.8532   -1.8368   -3.6515 H   0  0  0  0  0  0  0  0  0  0  0  0
    7.1759    0.5371   -3.7485 H   0  0  0  0  0  0  0  0  0  0  0  0
    8.6687   -0.3241   -3.2590 H   0  0  0  0  0  0  0  0  0  0  0  0
    6.7725    1.2908   -1.4817 H   0  0  0  0  0  0  0  0  0  0  0  0
    8.4648    1.6754   -1.9591 H   0  0  0  0  0  0  0  0  0  0  0  0
    9.6998   -0.9741   -1.5924 H   0  0  0  0  0  0  0  0  0  0  0  0
   10.1662    0.7491   -1.3328 H   0  0  0  0  0  0  0  0  0  0  0  0
   11.5169   -0.6456    0.0269 H   0  0  0  0  0  0  0  0  0  0  0  0
   10.0651   -1.4678    0.7665 H   0  0  0  0  0  0  0  0  0  0  0  0
   10.7438    0.3269    3.3824 H   0  0  0  0  0  0  0  0  0  0  0  0
   11.8849   -0.5618    2.3184 H   0  0  0  0  0  0  0  0  0  0  0  0
   11.9040    1.2835    2.4209 H   0  0  0  0  0  0  0  0  0  0  0  0
    8.6058   -0.4467    2.1392 H   0  0  0  0  0  0  0  0  0  0  0  0
    8.8788    1.3449    2.5247 H   0  0  0  0  0  0  0  0  0  0  0  0
    8.2511    2.0333    0.3637 H   0  0  0  0  0  0  0  0  0  0  0  0
    7.0362    0.8613    0.8886 H   0  0  0  0  0  0  0  0  0  0  0  0
  1  2  1  0
  2  3  1  0
  3  4  2  0
  4  5  1  0
  5  6  2  0
  6  7  1  0
  7  8  1  0
  8  9  2  0
  9 10  1  0
 10 11  2  0
 11 12  1  0
 12 13  1  0
 13 14  2  0
 13 15  1  0
 15 16  1  0
 16 17  1  0
 15 18  1  0
 18 19  2  0
 18 20  1  0
 20 21  1  0
 21 22  2  0
 22 23  1  0
 23 24  1  0
 24 25  1  0
 24 26  1  0
 26 27  2  0
 11 28  1  0
 28 29  2  0
 29 30  1  0
  6 31  1  0
 31 32  2  0
 32 33  1  0
 33 34  2  0
 34 35  1  0
 35 36  2  0
 36 37  1  0
 37 38  1  0
 38 39  1  0
 39 40  1  0
 40 41  1  0
 41 42  1  0
 42 43  1  0
 43 44  1  0
 44 45  1  0
 44 46  1  0
 46 47  1  0
 36  3  1  0
 47 41  1  0
 34  5  1  0
 29  8  1  0
 17 15  1  0
 27 21  1  0
  1 48  1  0
  1 49  1  0
  1 50  1  0
  4 51  1  0
  9 52  1  0
 10 53  1  0
 12 54  1  0
 16 55  1  0
 16 56  1  0
 17 57  1  0
 17 58  1  0
 20 59  1  0
 22 60  1  0
 23 61  1  0
 23 62  1  0
 24 63  1  0
 26 64  1  0
 27 65  1  0
 28 66  1  0
 31 67  1  0
 32 68  1  0
 35 69  1  0
 38 70  1  0
 38 71  1  0
 39 72  1  0
 39 73  1  0
 40 74  1  0
 40 75  1  0
 42 76  1  0
 42 77  1  0
 43 78  1  0
 43 79  1  0
 45 80  1  0
 45 81  1  0
 45 82  1  0
 46 83  1  0
 46 84  1  0
 47 85  1  0
 47 86  1  0
M  END
$$$$
[H]C1=C([H])C([H])(F)C([H])([H])C([H])=C1N([H])C(=O)C1(C(=O)N([H])c2c([H])c([H])c(Oc3c([H])c([H])nc4c([H])c(OC([H])([H])C([H])([H])C([H])([H])N5C([H])([H])C([H])([H])C([H])(C([H])([H])[H])C([H])([H])C5([H])[H])c(OC([H])([H])[H])c([H])c34)c(F)c2[H])C([H])([H])C1([H])[H]
     RDKit          3D

 87 92  0  0  0  0  0  0  0  0999 V2000
   -3.0785    0.9840    2.9446 C   0  0  0  0  0  0  0  0  0  0  0  0
   -3.9031    0.6001    1.8855 O   0  0  0  0  0  0  0  0  0  0  0  0
   -3.3679    0.0849    0.7226 C   0  0  0  0  0  0  0  0  0  0  0  0
   -1.9804   -0.0384    0.6399 C   0  0  0  0  0  0  0  0  0  0  0  0
   -1.4316   -0.5513   -0.5147 C   0  0  0  0  0  0  0  0  0  0  0  0
   -0.0349   -0.6840   -0.6153 C   0  0  0  0  0  0  0  0  0  0  0  0
    0.7128   -0.2873    0.4702 O   0  0  0  0  0  0  0  0  0  0  0  0
    2.0838   -0.4723    0.4829 C   0  0  0  0  0  0  0  0  0  0  0  0
    2.9490    0.6001    0.5003 C   0  0  0  0  0  0  0  0  0  0  0  0
    4.2979    0.4308    0.5145 C   0  0  0  0  0  0  0  0  0  0  0  0
    4.9250   -0.8414    0.5133 C   0  0  0  0  0  0  0  0  0  0  0  0
    6.3265   -0.8966    0.5252 N   0  0  0  0  0  0  0  0  0  0  0  0
    7.1090   -2.0317    0.4365 C   0  0  0  0  0  0  0  0  0  0  0  0
    6.5483   -3.1857    0.3227 O   0  0  0  0  0  0  0  0  0  0  0  0
    8.5926   -2.1273    0.4511 C   0  0  0  0  0  0  0  0  0  0  0  0
    9.2071   -3.3747    1.0628 C   0  0  0  0  0  0  0  0  0  0  0  0
    9.1485   -3.2060   -0.4295 C   0  0  0  0  0  0  0  0  0  0  0  0
    9.3963   -0.9194    0.6715 C   0  0  0  0  0  0  0  0  0  0  0  0
    8.9530    0.0799    1.2391 O   0  0  0  0  0  0  0  0  0  0  0  0
   10.7663   -0.8365    0.2298 N   0  0  0  0  0  0  0  0  0  0  0  0
   11.5347    0.3385    0.4356 C   0  0  0  0  0  0  0  0  0  0  0  0
   12.0434    0.9405   -0.6112 C   0  0  0  0  0  0  0  0  0  0  0  0
   12.8548    2.1592   -0.5102 C   0  0  0  0  0  0  0  0  0  0  0  0
   13.0082    2.7280    0.8563 C   0  0  0  0  0  0  0  0  0  0  0  0
   12.4179    4.0081    0.8164 F   0  0  0  0  0  0  0  0  0  0  0  0
   12.3963    1.9580    1.9334 C   0  0  0  0  0  0  0  0  0  0  0  0
   11.7215    0.8691    1.7600 C   0  0  0  0  0  0  0  0  0  0  0  0
    4.0542   -1.8931    0.4975 C   0  0  0  0  0  0  0  0  0  0  0  0
    2.6604   -1.7176    0.4827 C   0  0  0  0  0  0  0  0  0  0  0  0
    1.8732   -2.8458    0.4930 F   0  0  0  0  0  0  0  0  0  0  0  0
    0.4995   -1.1940   -1.7641 C   0  0  0  0  0  0  0  0  0  0  0  0
   -0.3389   -1.5697   -2.8019 C   0  0  0  0  0  0  0  0  0  0  0  0
   -1.6631   -1.4457   -2.7096 N   0  0  0  0  0  0  0  0  0  0  0  0
   -2.1993   -0.9486   -1.5938 C   0  0  0  0  0  0  0  0  0  0  0  0
   -3.5742   -0.7976   -1.4424 C   0  0  0  0  0  0  0  0  0  0  0  0
   -4.1790   -0.2950   -0.3220 C   0  0  0  0  0  0  0  0  0  0  0  0
   -5.5564   -0.1864   -0.2742 O   0  0  0  0  0  0  0  0  0  0  0  0
   -6.4099   -0.5626   -1.3057 C   0  0  0  0  0  0  0  0  0  0  0  0
   -7.8397   -0.2965   -0.9110 C   0  0  0  0  0  0  0  0  0  0  0  0
   -8.1005    1.1757   -0.6184 C   0  0  0  0  0  0  0  0  0  0  0  0
   -9.4544    1.3229   -0.2890 N   0  0  0  0  0  0  0  0  0  0  0  0
   -9.9778    0.7887    0.8920 C   0  0  0  0  0  0  0  0  0  0  0  0
  -11.4758    1.0809    0.9273 C   0  0  0  0  0  0  0  0  0  0  0  0
  -12.0963    0.6694   -0.3858 C   0  0  0  0  0  0  0  0  0  0  0  0
  -13.6008    0.8365   -0.3682 C   0  0  0  0  0  0  0  0  0  0  0  0
  -11.4634    1.4141   -1.5401 C   0  0  0  0  0  0  0  0  0  0  0  0
  -10.2633    2.2184   -1.0176 C   0  0  0  0  0  0  0  0  0  0  0  0
   -3.7453    1.4806    3.7086 H   0  0  0  0  0  0  0  0  0  0  0  0
   -2.2347    1.6277    2.6636 H   0  0  0  0  0  0  0  0  0  0  0  0
   -2.6654    0.0808    3.4802 H   0  0  0  0  0  0  0  0  0  0  0  0
   -1.3337    0.2521    1.4428 H   0  0  0  0  0  0  0  0  0  0  0  0
    2.5030    1.5961    0.5009 H   0  0  0  0  0  0  0  0  0  0  0  0
    4.9524    1.3060    0.5279 H   0  0  0  0  0  0  0  0  0  0  0  0
    6.8361    0.0334    0.5987 H   0  0  0  0  0  0  0  0  0  0  0  0
    8.5338   -4.1181    1.5207 H   0  0  0  0  0  0  0  0  0  0  0  0
   10.1894   -3.3100    1.5638 H   0  0  0  0  0  0  0  0  0  0  0  0
   10.0992   -3.0657   -0.9463 H   0  0  0  0  0  0  0  0  0  0  0  0
    8.4291   -3.8352   -1.0014 H   0  0  0  0  0  0  0  0  0  0  0  0
   11.2377   -1.6256   -0.2466 H   0  0  0  0  0  0  0  0  0  0  0  0
   11.8517    0.5096   -1.6075 H   0  0  0  0  0  0  0  0  0  0  0  0
   13.8598    1.8851   -0.9567 H   0  0  0  0  0  0  0  0  0  0  0  0
   12.4110    2.9077   -1.2293 H   0  0  0  0  0  0  0  0  0  0  0  0
   14.1005    2.8469    1.0909 H   0  0  0  0  0  0  0  0  0  0  0  0
   12.5083    2.3180    2.9616 H   0  0  0  0  0  0  0  0  0  0  0  0
   11.2949    0.3584    2.6390 H   0  0  0  0  0  0  0  0  0  0  0  0
    4.4171   -2.9195    0.5011 H   0  0  0  0  0  0  0  0  0  0  0  0
    1.5644   -1.2892   -1.8730 H   0  0  0  0  0  0  0  0  0  0  0  0
    0.1295   -1.9794   -3.7181 H   0  0  0  0  0  0  0  0  0  0  0  0
   -4.1966   -1.1029   -2.2772 H   0  0  0  0  0  0  0  0  0  0  0  0
   -6.2368   -1.6646   -1.4691 H   0  0  0  0  0  0  0  0  0  0  0  0
   -6.1593   -0.0998   -2.2911 H   0  0  0  0  0  0  0  0  0  0  0  0
   -8.0234   -0.9092    0.0221 H   0  0  0  0  0  0  0  0  0  0  0  0
   -8.5647   -0.6901   -1.6493 H   0  0  0  0  0  0  0  0  0  0  0  0
   -7.9076    1.7201   -1.5885 H   0  0  0  0  0  0  0  0  0  0  0  0
   -7.4247    1.5726    0.1400 H   0  0  0  0  0  0  0  0  0  0  0  0
   -9.4936    1.1718    1.8359 H   0  0  0  0  0  0  0  0  0  0  0  0
   -9.8858   -0.3337    0.8790 H   0  0  0  0  0  0  0  0  0  0  0  0
  -11.6897    2.1325    1.1977 H   0  0  0  0  0  0  0  0  0  0  0  0
  -11.9304    0.4561    1.7414 H   0  0  0  0  0  0  0  0  0  0  0  0
  -11.9022   -0.4405   -0.4738 H   0  0  0  0  0  0  0  0  0  0  0  0
  -13.9555    0.5945    0.6408 H   0  0  0  0  0  0  0  0  0  0  0  0
  -14.0206    0.0698   -1.0603 H   0  0  0  0  0  0  0  0  0  0  0  0
  -13.9170    1.8572   -0.7058 H   0  0  0  0  0  0  0  0  0  0  0  0
  -12.2165    2.0590   -1.9893 H   0  0  0  0  0  0  0  0  0  0  0  0
  -11.0159    0.7060   -2.2825 H   0  0  0  0  0  0  0  0  0  0  0  0
   -9.7587    2.7468   -1.8315 H   0  0  0  0  0  0  0  0  0  0  0  0
  -10.7312    3.0122   -0.3702 H   0  0  0  0  0  0  0  0  0  0  0  0
  1  2  1  0
  2  3  1  0
  3  4  2  0
  4  5  1  0
  5  6  2  0
  6  7  1  0
  7  8  1  0
  8  9  2  0
  9 10  1  0
 10 11  2  0
 11 12  1  0
 12 13  1  0
 13 14  2  0
 13 15  1  0
 15 16  1  0
 16 17  1  0
 15 18  1  0
 18 19  2  0
 18 20  1  0
 20 21  1  0
 21 22  2  0
 22 23  1  0
 23 24  1  0
 24 25  1  0
 24 26  1  0
 26 27  2  0
 11 28  1  0
 28 29  2  0
 29 30  1  0
  6 31  1  0
 31 32  2  0
 32 33  1  0
 33 34  2  0
 34 35  1  0
 35 36  2  0
 36 37  1  0
 37 38  1  0
 38 39  1  0
 39 40  1  0
 40 41  1  0
 41 42  1  0
 42 43  1  0
 43 44  1  0
 44 45  1  0
 44 46  1  0
 46 47  1  0
 36  3  1  0
 47 41  1  0
 34  5  1  0
 29  8  1  0
 17 15  1  0
 27 21  1  0
  1 48  1  0
  1 49  1  0
  1 50  1  0
  4 51  1  0
  9 52  1  0
 10 53  1  0
 12 54  1  0
 16 55  1  0
 16 56  1  0
 17 57  1  0
 17 58  1  0
 20 59  1  0
 22 60  1  0
 23 61  1  0
 23 62  1  0
 24 63  1  0
 26 64  1  0
 27 65  1  0
 28 66  1  0
 31 67  1  0
 32 68  1  0
 35 69  1  0
 38 70  1  0
 38 71  1  0
 39 72  1  0
 39 73  1  0
 40 74  1  0
 40 75  1  0
 42 76  1  0
 42 77  1  0
 43 78  1  0
 43 79  1  0
 44 80  1  0
 45 81  1  0
 45 82  1  0
 45 83  1  0
 46 84  1  0
 46 85  1  0
 47 86  1  0
 47 87  1  0
M  END
$$$$
[H]O[C@]1([H])C([H])([H])C([H])([H])[C@@]([H])(n2c([H])c(-c3c([H])c([H])c(C([H])([H])N4C([H])([H])C([H])([H])N(C([H])([H])[H])C([H])([H])C4([H])[H])c([H])c3[H])c3c([H])nc(N([H])C([H])([H])C([H])([H])C([H])([H])C([H])([H])[H])nc32)C([H])([H])C1([H])[H]
     RDKit          3D

 75 79  0  0  0  0  0  0  0  0999 V2000
   -6.1265   -4.6709   -1.4377 C   0  0  0  0  0  0  0  0  0  0  0  0
   -6.4452   -3.4795   -0.5662 C   0  0  0  0  0  0  0  0  0  0  0  0
   -5.7836   -3.6679    0.7872 C   0  0  0  0  0  0  0  0  0  0  0  0
   -6.0485   -2.5289    1.7119 C   0  0  0  0  0  0  0  0  0  0  0  0
   -5.5961   -1.2508    1.2531 N   0  0  0  0  0  0  0  0  0  0  0  0
   -4.2263   -0.9557    1.0200 C   0  0  0  0  0  0  0  0  0  0  0  0
   -3.2719   -1.8767    1.2267 N   0  0  0  0  0  0  0  0  0  0  0  0
   -1.9743   -1.6182    1.0129 C   0  0  0  0  0  0  0  0  0  0  0  0
   -1.5934   -0.3907    0.5731 C   0  0  0  0  0  0  0  0  0  0  0  0
   -0.3815    0.1748    0.2672 C   0  0  0  0  0  0  0  0  0  0  0  0
   -0.6378    1.4685   -0.1309 C   0  0  0  0  0  0  0  0  0  0  0  0
   -1.9850    1.6913   -0.0698 N   0  0  0  0  0  0  0  0  0  0  0  0
   -2.5613    2.9377   -0.4197 C   0  0  1  0  0  0  0  0  0  0  0  0
   -4.0207    3.0561   -0.1497 C   0  0  0  0  0  0  0  0  0  0  0  0
   -4.5433    4.4576   -0.3351 C   0  0  0  0  0  0  0  0  0  0  0  0
   -3.5029    5.4243   -0.8152 C   0  0  2  0  0  0  0  0  0  0  0  0
   -3.3755    5.3566   -2.2215 O   0  0  0  0  0  0  0  0  0  0  0  0
   -2.1989    5.3325   -0.1116 C   0  0  0  0  0  0  0  0  0  0  0  0
   -1.8702    3.9970    0.4538 C   0  0  0  0  0  0  0  0  0  0  0  0
   -2.5729    0.5767    0.3536 C   0  0  0  0  0  0  0  0  0  0  0  0
   -3.8563    0.2815    0.5779 N   0  0  0  0  0  0  0  0  0  0  0  0
    0.9576   -0.4431    0.3349 C   0  0  0  0  0  0  0  0  0  0  0  0
    1.2311   -1.6876   -0.1387 C   0  0  0  0  0  0  0  0  0  0  0  0
    2.5088   -2.1959   -0.0379 C   0  0  0  0  0  0  0  0  0  0  0  0
    3.5429   -1.4894    0.5310 C   0  0  0  0  0  0  0  0  0  0  0  0
    4.8931   -2.0331    0.6422 C   0  0  0  0  0  0  0  0  0  0  0  0
    5.6722   -1.9588   -0.5454 N   0  0  0  0  0  0  0  0  0  0  0  0
    6.9879   -2.5154   -0.3305 C   0  0  0  0  0  0  0  0  0  0  0  0
    7.9311   -1.4726    0.2595 C   0  0  0  0  0  0  0  0  0  0  0  0
    8.0546   -0.4244   -0.7363 N   0  0  0  0  0  0  0  0  0  0  0  0
    9.0631    0.5418   -0.4224 C   0  0  0  0  0  0  0  0  0  0  0  0
    6.7615    0.2261   -0.8204 C   0  0  0  0  0  0  0  0  0  0  0  0
    5.6751   -0.7265   -1.2458 C   0  0  0  0  0  0  0  0  0  0  0  0
    3.2490   -0.2169    1.0115 C   0  0  0  0  0  0  0  0  0  0  0  0
    1.9781    0.3009    0.9167 C   0  0  0  0  0  0  0  0  0  0  0  0
   -7.0019   -4.9446   -2.0585 H   0  0  0  0  0  0  0  0  0  0  0  0
   -5.2779   -4.3782   -2.0934 H   0  0  0  0  0  0  0  0  0  0  0  0
   -5.8467   -5.5123   -0.7766 H   0  0  0  0  0  0  0  0  0  0  0  0
   -6.0650   -2.5259   -0.9985 H   0  0  0  0  0  0  0  0  0  0  0  0
   -7.5469   -3.4497   -0.4551 H   0  0  0  0  0  0  0  0  0  0  0  0
   -6.2822   -4.5646    1.2300 H   0  0  0  0  0  0  0  0  0  0  0  0
   -4.7224   -3.9121    0.7038 H   0  0  0  0  0  0  0  0  0  0  0  0
   -7.1459   -2.5043    1.9218 H   0  0  0  0  0  0  0  0  0  0  0  0
   -5.5569   -2.7803    2.6840 H   0  0  0  0  0  0  0  0  0  0  0  0
   -6.3073   -0.4975    1.0804 H   0  0  0  0  0  0  0  0  0  0  0  0
   -1.1917   -2.3544    1.1769 H   0  0  0  0  0  0  0  0  0  0  0  0
    0.1394    2.1558   -0.4330 H   0  0  0  0  0  0  0  0  0  0  0  0
   -2.3857    3.2168   -1.4991 H   0  0  0  0  0  0  0  0  0  0  0  0
   -4.2107    2.8056    0.9144 H   0  0  0  0  0  0  0  0  0  0  0  0
   -4.5782    2.3240   -0.8039 H   0  0  0  0  0  0  0  0  0  0  0  0
   -5.0341    4.8709    0.5701 H   0  0  0  0  0  0  0  0  0  0  0  0
   -5.3334    4.4133   -1.1133 H   0  0  0  0  0  0  0  0  0  0  0  0
   -3.9148    6.4575   -0.6253 H   0  0  0  0  0  0  0  0  0  0  0  0
   -3.0124    6.2246   -2.5390 H   0  0  0  0  0  0  0  0  0  0  0  0
   -2.0960    6.0820    0.7204 H   0  0  0  0  0  0  0  0  0  0  0  0
   -1.3936    5.6238   -0.8471 H   0  0  0  0  0  0  0  0  0  0  0  0
   -0.7584    3.8687    0.4223 H   0  0  0  0  0  0  0  0  0  0  0  0
   -2.2778    3.8961    1.4805 H   0  0  0  0  0  0  0  0  0  0  0  0
    0.4192   -2.2577   -0.5930 H   0  0  0  0  0  0  0  0  0  0  0  0
    2.6745   -3.1852   -0.4272 H   0  0  0  0  0  0  0  0  0  0  0  0
    4.7853   -3.1279    0.8977 H   0  0  0  0  0  0  0  0  0  0  0  0
    5.4043   -1.5853    1.5192 H   0  0  0  0  0  0  0  0  0  0  0  0
    7.4333   -2.8512   -1.2807 H   0  0  0  0  0  0  0  0  0  0  0  0
    6.9338   -3.3371    0.3862 H   0  0  0  0  0  0  0  0  0  0  0  0
    8.8823   -1.9525    0.5143 H   0  0  0  0  0  0  0  0  0  0  0  0
    7.4200   -1.0021    1.1344 H   0  0  0  0  0  0  0  0  0  0  0  0
   10.0186    0.0181   -0.1714 H   0  0  0  0  0  0  0  0  0  0  0  0
    8.7994    1.1631    0.4434 H   0  0  0  0  0  0  0  0  0  0  0  0
    9.2696    1.1306   -1.3355 H   0  0  0  0  0  0  0  0  0  0  0  0
    6.5398    0.7314    0.1333 H   0  0  0  0  0  0  0  0  0  0  0  0
    6.8600    1.0214   -1.6052 H   0  0  0  0  0  0  0  0  0  0  0  0
    5.8495   -0.9449   -2.3232 H   0  0  0  0  0  0  0  0  0  0  0  0
    4.7135   -0.1889   -1.2032 H   0  0  0  0  0  0  0  0  0  0  0  0
    4.0693    0.3332    1.4577 H   0  0  0  0  0  0  0  0  0  0  0  0
    1.7943    1.2993    1.3059 H   0  0  0  0  0  0  0  0  0  0  0  0
  1  2  1  0
  2  3  1  0
  3  4  1  0
  4  5  1  0
  5  6  1  0
  6  7  2  0
  7  8  1  0
  8  9  2  0
  9 10  1  0
 10 11  2  0
 11 12  1  0
 12 13  1  0
 13 14  1  0
 14 15  1  0
 15 16  1  0
 16 17  1  0
 16 18  1  0
 18 19  1  0
 12 20  1  0
 20 21  2  0
 10 22  1  0
 22 23  2  0
 23 24  1  0
 24 25  2  0
 25 26  1  0
 26 27  1  0
 27 28  1  0
 28 29  1  0
 29 30  1  0
 30 31  1  0
 30 32  1  0
 32 33  1  0
 25 34  1  0
 34 35  2  0
 21  6  1  0
 35 22  1  0
 20  9  1  0
 33 27  1  0
 19 13  1  0
  1 36  1  0
  1 37  1  0
  1 38  1  0
  2 39  1  0
  2 40  1  0
  3 41  1  0
  3 42  1  0
  4 43  1  0
  4 44  1  0
  5 45  1  0
  8 46  1  0
 11 47  1  0
 13 48  1  6
 14 49  1  0
 14 50  1  0
 15 51  1  0
 15 52  1  0
 16 53  1  6
 17 54  1  0
 18 55  1  0
 18 56  1  0
 19 57  1  0
 19 58  1  0
 23 59  1  0
 24 60  1  0
 26 61  1  0
 26 62  1  0
 28 63  1  0
 28 64  1  0
 29 65  1  0
 29 66  1  0
 31 67  1  0
 31 68  1  0
 31 69  1  0
 32 70  1  0
 32 71  1  0
 33 72  1  0
 33 73  1  0
 34 74  1  0
 35 75  1  0
M  END
$$$$
[H]O[C@]1([H])C([H])([H])C([H])([H])[C@@]([H])(n2c([H])c(-c3c([H])c([H])c(N4C([H])([H])C([H])([H])N(C([H])([H])[H])C([H])([H])C4([H])[H])c([H])c3[H])c3c([H])nc(N([H])C([H])([H])C([H])([H])C([H])([H])C([H])([H])[H])nc32)C([H])([H])C1([H])[H]
     RDKit          3D

 72 76  0  0  0  0  0  0  0  0999 V2000
   -6.3227    4.5332   -0.4304 C   0  0  0  0  0  0  0  0  0  0  0  0
   -7.2501    3.4179   -0.1234 C   0  0  0  0  0  0  0  0  0  0  0  0
   -6.8713    2.5755    1.0368 C   0  0  0  0  0  0  0  0  0  0  0  0
   -5.5850    1.8464    0.9762 C   0  0  0  0  0  0  0  0  0  0  0  0
   -4.3802    2.5862    0.9053 N   0  0  0  0  0  0  0  0  0  0  0  0
   -3.1535    1.8679    0.7053 C   0  0  0  0  0  0  0  0  0  0  0  0
   -1.9843    2.5269    0.6310 N   0  0  0  0  0  0  0  0  0  0  0  0
   -0.8040    1.9149    0.4436 C   0  0  0  0  0  0  0  0  0  0  0  0
   -0.8039    0.5383    0.3225 C   0  0  0  0  0  0  0  0  0  0  0  0
    0.2081   -0.3840    0.1255 C   0  0  0  0  0  0  0  0  0  0  0  0
   -0.4051   -1.6119    0.0859 C   0  0  0  0  0  0  0  0  0  0  0  0
   -1.7341   -1.4955    0.2474 N   0  0  0  0  0  0  0  0  0  0  0  0
   -2.7430   -2.5355    0.2699 C   0  0  1  0  0  0  0  0  0  0  0  0
   -3.6564   -2.4004   -0.9241 C   0  0  0  0  0  0  0  0  0  0  0  0
   -4.5690   -3.5951   -1.0330 C   0  0  0  0  0  0  0  0  0  0  0  0
   -3.7359   -4.8462   -1.1317 C   0  0  2  0  0  0  0  0  0  0  0  0
   -4.4755   -5.9673   -1.4319 O   0  0  0  0  0  0  0  0  0  0  0  0
   -3.0252   -5.0197    0.2039 C   0  0  0  0  0  0  0  0  0  0  0  0
   -2.0434   -3.8716    0.3172 C   0  0  0  0  0  0  0  0  0  0  0  0
   -1.9939   -0.1614    0.3956 C   0  0  0  0  0  0  0  0  0  0  0  0
   -3.1300    0.5325    0.5852 N   0  0  0  0  0  0  0  0  0  0  0  0
    1.6452   -0.0847   -0.0074 C   0  0  0  0  0  0  0  0  0  0  0  0
    2.2904    0.7726    0.8574 C   0  0  0  0  0  0  0  0  0  0  0  0
    3.6348    1.0522    0.7277 C   0  0  0  0  0  0  0  0  0  0  0  0
    4.4048    0.4765   -0.2902 C   0  0  0  0  0  0  0  0  0  0  0  0
    3.7509   -0.3743   -1.1438 C   0  0  0  0  0  0  0  0  0  0  0  0
    2.3866   -0.6592   -1.0134 C   0  0  0  0  0  0  0  0  0  0  0  0
    5.7835    0.7875   -0.3968 N   0  0  0  0  0  0  0  0  0  0  0  0
    6.3824    1.7728    0.4922 C   0  0  0  0  0  0  0  0  0  0  0  0
    7.6868    2.2531   -0.1045 C   0  0  0  0  0  0  0  0  0  0  0  0
    8.6329    1.1680   -0.2699 N   0  0  0  0  0  0  0  0  0  0  0  0
    9.5035    1.0368    0.8829 C   0  0  0  0  0  0  0  0  0  0  0  0
    8.0002   -0.0691   -0.6259 C   0  0  0  0  0  0  0  0  0  0  0  0
    6.6797    0.1798   -1.3526 C   0  0  0  0  0  0  0  0  0  0  0  0
   -5.4011    4.2262   -0.9791 H   0  0  0  0  0  0  0  0  0  0  0  0
   -6.8189    5.3244   -1.0811 H   0  0  0  0  0  0  0  0  0  0  0  0
   -6.0529    5.0931    0.4845 H   0  0  0  0  0  0  0  0  0  0  0  0
   -7.3518    2.7298   -1.0219 H   0  0  0  0  0  0  0  0  0  0  0  0
   -8.2719    3.8556   -0.0059 H   0  0  0  0  0  0  0  0  0  0  0  0
   -6.9530    3.2225    1.9557 H   0  0  0  0  0  0  0  0  0  0  0  0
   -7.6946    1.8114    1.2023 H   0  0  0  0  0  0  0  0  0  0  0  0
   -5.4837    1.1621    1.8781 H   0  0  0  0  0  0  0  0  0  0  0  0
   -5.6511    1.1812    0.0501 H   0  0  0  0  0  0  0  0  0  0  0  0
   -4.3282    3.6014    1.0063 H   0  0  0  0  0  0  0  0  0  0  0  0
    0.1226    2.4588    0.3852 H   0  0  0  0  0  0  0  0  0  0  0  0
    0.1306   -2.5443   -0.0580 H   0  0  0  0  0  0  0  0  0  0  0  0
   -3.3464   -2.4570    1.2076 H   0  0  0  0  0  0  0  0  0  0  0  0
   -4.3163   -1.5114   -0.7139 H   0  0  0  0  0  0  0  0  0  0  0  0
   -3.1023   -2.1883   -1.8391 H   0  0  0  0  0  0  0  0  0  0  0  0
   -5.2448   -3.4638   -1.8941 H   0  0  0  0  0  0  0  0  0  0  0  0
   -5.1531   -3.6408   -0.0708 H   0  0  0  0  0  0  0  0  0  0  0  0
   -2.9239   -4.6427   -1.8751 H   0  0  0  0  0  0  0  0  0  0  0  0
   -4.1927   -6.6969   -0.8213 H   0  0  0  0  0  0  0  0  0  0  0  0
   -3.7585   -4.9404    1.0429 H   0  0  0  0  0  0  0  0  0  0  0  0
   -2.4598   -5.9603    0.2313 H   0  0  0  0  0  0  0  0  0  0  0  0
   -1.4935   -3.9107    1.2824 H   0  0  0  0  0  0  0  0  0  0  0  0
   -1.2819   -3.9793   -0.4782 H   0  0  0  0  0  0  0  0  0  0  0  0
    1.7333    1.2485    1.6722 H   0  0  0  0  0  0  0  0  0  0  0  0
    4.1447    1.7246    1.4063 H   0  0  0  0  0  0  0  0  0  0  0  0
    4.3064   -0.8473   -1.9558 H   0  0  0  0  0  0  0  0  0  0  0  0
    1.9080   -1.3457   -1.7200 H   0  0  0  0  0  0  0  0  0  0  0  0
    5.7023    2.6545    0.4894 H   0  0  0  0  0  0  0  0  0  0  0  0
    6.4874    1.4250    1.5184 H   0  0  0  0  0  0  0  0  0  0  0  0
    8.1355    2.9603    0.6211 H   0  0  0  0  0  0  0  0  0  0  0  0
    7.5268    2.7822   -1.0438 H   0  0  0  0  0  0  0  0  0  0  0  0
    9.2803    1.8751    1.5785 H   0  0  0  0  0  0  0  0  0  0  0  0
    9.4273    0.0524    1.3672 H   0  0  0  0  0  0  0  0  0  0  0  0
   10.5477    1.1794    0.5517 H   0  0  0  0  0  0  0  0  0  0  0  0
    8.6208   -0.6894   -1.3252 H   0  0  0  0  0  0  0  0  0  0  0  0
    7.7914   -0.6519    0.2778 H   0  0  0  0  0  0  0  0  0  0  0  0
    6.8084    0.9068   -2.1820 H   0  0  0  0  0  0  0  0  0  0  0  0
    6.2836   -0.7680   -1.7103 H   0  0  0  0  0  0  0  0  0  0  0  0
  1  2  1  0
  2  3  1  0
  3  4  1  0
  4  5  1  0
  5  6  1  0
  6  7  2  0
  7  8  1  0
  8  9  2  0
  9 10  1  0
 10 11  2  0
 11 12  1  0
 12 13  1  0
 13 14  1  0
 14 15  1  0
 15 16  1  0
 16 17  1  0
 16 18  1  0
 18 19  1  0
 12 20  1  0
 20 21  2  0
 10 22  1  0
 22 23  2  0
 23 24  1  0
 24 25  2  0
 25 26  1  0
 26 27  2  0
 25 28  1  0
 28 29  1  0
 29 30  1  0
 30 31  1  0
 31 32  1  0
 31 33  1  0
 33 34  1  0
 21  6  1  0
 27 22  1  0
 34 28  1  0
 20  9  1  0
 19 13  1  0
  1 35  1  0
  1 36  1  0
  1 37  1  0
  2 38  1  0
  2 39  1  0
  3 40  1  0
  3 41  1  0
  4 42  1  0
  4 43  1  0
  5 44  1  0
  8 45  1  0
 11 46  1  0
 13 47  1  1
 14 48  1  0
 14 49  1  0
 15 50  1  0
 15 51  1  0
 16 52  1  6
 17 53  1  0
 18 54  1  0
 18 55  1  0
 19 56  1  0
 19 57  1  0
 23 58  1  0
 24 59  1  0
 26 60  1  0
 27 61  1  0
 29 62  1  0
 29 63  1  0
 30 64  1  0
 30 65  1  0
 32 66  1  0
 32 67  1  0
 32 68  1  0
 33 69  1  0
 33 70  1  0
 34 71  1  0
 34 72  1  0
M  END
$$$$
[H]C1=C([H])C([H])(F)C([H])([H])C([H])=C1N([H])C(=O)C1(C(=O)N([H])c2c([H])c([H])c(Oc3c([H])c([H])nc4c([H])c(OC([H])([H])C([H])([H])C([H])([H])N5C([H])([H])C([H])([H])C([H])([H])C5([H])[H])c(OC([H])([H])[H])c([H])c34)c(F)c2[H])C([H])([H])C1([H])[H]
     RDKit          3D

 81 86  0  0  0  0  0  0  0  0999 V2000
   -3.5877    0.0230   -2.5605 C   0  0  0  0  0  0  0  0  0  0  0  0
   -4.4433   -0.0435   -1.4508 O   0  0  0  0  0  0  0  0  0  0  0  0
   -3.9880   -0.2494   -0.1491 C   0  0  0  0  0  0  0  0  0  0  0  0
   -2.6478   -0.3994    0.1096 C   0  0  0  0  0  0  0  0  0  0  0  0
   -2.1587   -0.6042    1.3755 C   0  0  0  0  0  0  0  0  0  0  0  0
   -0.7923   -0.7567    1.6112 C   0  0  0  0  0  0  0  0  0  0  0  0
    0.0250   -0.6916    0.5279 O   0  0  0  0  0  0  0  0  0  0  0  0
    1.3913   -0.8525    0.4754 C   0  0  0  0  0  0  0  0  0  0  0  0
    2.2342    0.1729    0.0692 C   0  0  0  0  0  0  0  0  0  0  0  0
    3.5918   -0.0103    0.0220 C   0  0  0  0  0  0  0  0  0  0  0  0
    4.2120   -1.2204    0.3732 C   0  0  0  0  0  0  0  0  0  0  0  0
    5.6358   -1.3113    0.3171 N   0  0  0  0  0  0  0  0  0  0  0  0
    6.4056   -2.4553    0.1478 C   0  0  0  0  0  0  0  0  0  0  0  0
    5.7718   -3.5663    0.0427 O   0  0  0  0  0  0  0  0  0  0  0  0
    7.8601   -2.5227    0.0895 C   0  0  0  0  0  0  0  0  0  0  0  0
    8.4588   -3.8753   -0.2867 C   0  0  0  0  0  0  0  0  0  0  0  0
    8.4428   -3.4847    1.1392 C   0  0  0  0  0  0  0  0  0  0  0  0
    8.7035   -1.3424   -0.2300 C   0  0  0  0  0  0  0  0  0  0  0  0
    9.9255   -1.4864    0.1717 O   0  0  0  0  0  0  0  0  0  0  0  0
    8.2626   -0.2155   -0.8859 N   0  0  0  0  0  0  0  0  0  0  0  0
    8.9663    0.9916   -1.2279 C   0  0  0  0  0  0  0  0  0  0  0  0
   10.2261    1.1961   -0.9431 C   0  0  0  0  0  0  0  0  0  0  0  0
   10.9546    2.4310   -1.2907 C   0  0  0  0  0  0  0  0  0  0  0  0
   10.1946    3.4846   -1.9837 C   0  0  0  0  0  0  0  0  0  0  0  0
   10.2335    4.6437   -1.1848 F   0  0  0  0  0  0  0  0  0  0  0  0
    8.8021    3.1813   -2.2644 C   0  0  0  0  0  0  0  0  0  0  0  0
    8.2359    2.0634   -1.9301 C   0  0  0  0  0  0  0  0  0  0  0  0
    3.3805   -2.2291    0.7736 C   0  0  0  0  0  0  0  0  0  0  0  0
    1.9865   -2.0377    0.8203 C   0  0  0  0  0  0  0  0  0  0  0  0
    1.2365   -3.0982    1.2142 F   0  0  0  0  0  0  0  0  0  0  0  0
   -0.4287   -0.9581    2.9201 C   0  0  0  0  0  0  0  0  0  0  0  0
   -1.3521   -1.0070    3.9339 C   0  0  0  0  0  0  0  0  0  0  0  0
   -2.6377   -0.8567    3.6575 N   0  0  0  0  0  0  0  0  0  0  0  0
   -3.0892   -0.6527    2.3915 C   0  0  0  0  0  0  0  0  0  0  0  0
   -4.4416   -0.5052    2.1646 C   0  0  0  0  0  0  0  0  0  0  0  0
   -4.8811   -0.3029    0.8827 C   0  0  0  0  0  0  0  0  0  0  0  0
   -6.2490   -0.1596    0.6965 O   0  0  0  0  0  0  0  0  0  0  0  0
   -7.1921   -0.2052    1.7204 C   0  0  0  0  0  0  0  0  0  0  0  0
   -8.5663   -0.0150    1.1322 C   0  0  0  0  0  0  0  0  0  0  0  0
   -8.6955    1.3020    0.4220 C   0  0  0  0  0  0  0  0  0  0  0  0
  -10.0037    1.4621   -0.1281 N   0  0  0  0  0  0  0  0  0  0  0  0
  -10.2287    2.6808   -0.8350 C   0  0  0  0  0  0  0  0  0  0  0  0
  -11.1566    2.3511   -2.0081 C   0  0  0  0  0  0  0  0  0  0  0  0
  -11.7165    1.0092   -1.5741 C   0  0  0  0  0  0  0  0  0  0  0  0
  -10.4689    0.3786   -0.9383 C   0  0  0  0  0  0  0  0  0  0  0  0
   -4.1462    0.4826   -3.4058 H   0  0  0  0  0  0  0  0  0  0  0  0
   -2.7486    0.7305   -2.3481 H   0  0  0  0  0  0  0  0  0  0  0  0
   -3.2042   -0.9751   -2.8684 H   0  0  0  0  0  0  0  0  0  0  0  0
   -1.9172   -0.3599   -0.6920 H   0  0  0  0  0  0  0  0  0  0  0  0
    1.7492    1.1006   -0.1989 H   0  0  0  0  0  0  0  0  0  0  0  0
    4.2444    0.7990   -0.2985 H   0  0  0  0  0  0  0  0  0  0  0  0
    6.1068   -0.3582    0.4880 H   0  0  0  0  0  0  0  0  0  0  0  0
    7.7266   -4.6220   -0.6534 H   0  0  0  0  0  0  0  0  0  0  0  0
    9.4183   -3.8918   -0.8472 H   0  0  0  0  0  0  0  0  0  0  0  0
    9.4104   -3.1476    1.6028 H   0  0  0  0  0  0  0  0  0  0  0  0
    7.7630   -3.9592    1.8454 H   0  0  0  0  0  0  0  0  0  0  0  0
    7.2650   -0.2466   -1.2614 H   0  0  0  0  0  0  0  0  0  0  0  0
   10.8241    0.4296   -0.4110 H   0  0  0  0  0  0  0  0  0  0  0  0
   11.8456    2.1794   -1.9484 H   0  0  0  0  0  0  0  0  0  0  0  0
   11.3908    2.8108   -0.3161 H   0  0  0  0  0  0  0  0  0  0  0  0
   10.6645    3.7949   -2.9610 H   0  0  0  0  0  0  0  0  0  0  0  0
    8.2315    3.9729   -2.7929 H   0  0  0  0  0  0  0  0  0  0  0  0
    7.1670    1.8981   -2.1758 H   0  0  0  0  0  0  0  0  0  0  0  0
    3.7856   -3.1876    1.0764 H   0  0  0  0  0  0  0  0  0  0  0  0
    0.6075   -1.0712    3.1537 H   0  0  0  0  0  0  0  0  0  0  0  0
   -1.0717   -1.1659    4.9745 H   0  0  0  0  0  0  0  0  0  0  0  0
   -5.1120   -0.5552    3.0169 H   0  0  0  0  0  0  0  0  0  0  0  0
   -7.1820   -1.2490    2.1462 H   0  0  0  0  0  0  0  0  0  0  0  0
   -6.9796    0.4646    2.5680 H   0  0  0  0  0  0  0  0  0  0  0  0
   -9.3685   -0.0413    1.9143 H   0  0  0  0  0  0  0  0  0  0  0  0
   -8.7385   -0.8568    0.4359 H   0  0  0  0  0  0  0  0  0  0  0  0
   -8.5595    2.1075    1.1881 H   0  0  0  0  0  0  0  0  0  0  0  0
   -7.8715    1.4342   -0.3151 H   0  0  0  0  0  0  0  0  0  0  0  0
  -10.7856    3.4045   -0.1999 H   0  0  0  0  0  0  0  0  0  0  0  0
   -9.3011    3.1863   -1.1756 H   0  0  0  0  0  0  0  0  0  0  0  0
  -11.9700    3.1048   -2.1030 H   0  0  0  0  0  0  0  0  0  0  0  0
  -10.5960    2.2617   -2.9622 H   0  0  0  0  0  0  0  0  0  0  0  0
  -12.4672    1.2054   -0.7918 H   0  0  0  0  0  0  0  0  0  0  0  0
  -12.0978    0.4163   -2.4102 H   0  0  0  0  0  0  0  0  0  0  0  0
  -10.7030   -0.5229   -0.3684 H   0  0  0  0  0  0  0  0  0  0  0  0
   -9.7919    0.1704   -1.8195 H   0  0  0  0  0  0  0  0  0  0  0  0
  1  2  1  0
  2  3  1  0
  3  4  2  0
  4  5  1  0
  5  6  2  0
  6  7  1  0
  7  8  1  0
  8  9  2  0
  9 10  1  0
 10 11  2  0
 11 12  1  0
 12 13  1  0
 13 14  2  0
 13 15  1  0
 15 16  1  0
 16 17  1  0
 15 18  1  0
 18 19  2  0
 18 20  1  0
 20 21  1  0
 21 22  2  0
 22 23  1  0
 23 24  1  0
 24 25  1  0
 24 26  1  0
 26 27  2  0
 11 28  1  0
 28 29  2  0
 29 30  1  0
  6 31  1  0
 31 32  2  0
 32 33  1  0
 33 34  2  0
 34 35  1  0
 35 36  2  0
 36 37  1  0
 37 38  1  0
 38 39  1  0
 39 40  1  0
 40 41  1  0
 41 42  1  0
 42 43  1  0
 43 44  1  0
 44 45  1  0
 36  3  1  0
 45 41  1  0
 34  5  1  0
 29  8  1  0
 17 15  1  0
 27 21  1  0
  1 46  1  0
  1 47  1  0
  1 48  1  0
  4 49  1  0
  9 50  1  0
 10 51  1  0
 12 52  1  0
 16 53  1  0
 16 54  1  0
 17 55  1  0
 17 56  1  0
 20 57  1  0
 22 58  1  0
 23 59  1  0
 23 60  1  0
 24 61  1  0
 26 62  1  0
 27 63  1  0
 28 64  1  0
 31 65  1  0
 32 66  1  0
 35 67  1  0
 38 68  1  0
 38 69  1  0
 39 70  1  0
 39 71  1  0
 40 72  1  0
 40 73  1  0
 42 74  1  0
 42 75  1  0
 43 76  1  0
 43 77  1  0
 44 78  1  0
 44 79  1  0
 45 80  1  0
 45 81  1  0
M  END
$$$$
[H]O[C@]1([H])C([H])([H])C([H])([H])[C@@]([H])(n2c([H])c(-c3c([H])c([H])c(S(=O)(=O)N4C([H])([H])C([H])([H])OC([H])([H])C4([H])[H])c([H])c3[H])c3c([H])nc(N([H])C([H])([H])C([H])([H])C([H])([H])C([H])([H])[H])nc32)C([H])([H])C1([H])[H]
     RDKit          3D

 71 75  0  0  0  0  0  0  0  0999 V2000
   -8.4534   -4.7385   -0.5698 C   0  0  0  0  0  0  0  0  0  0  0  0
   -6.9961   -4.3989   -0.4916 C   0  0  0  0  0  0  0  0  0  0  0  0
   -6.7745   -2.9059   -0.2230 C   0  0  0  0  0  0  0  0  0  0  0  0
   -5.2755   -2.7048   -0.1689 C   0  0  0  0  0  0  0  0  0  0  0  0
   -4.9290   -1.3217    0.0819 N   0  0  0  0  0  0  0  0  0  0  0  0
   -3.5430   -0.9916    0.1573 C   0  0  0  0  0  0  0  0  0  0  0  0
   -2.5804   -1.9226    0.0026 N   0  0  0  0  0  0  0  0  0  0  0  0
   -1.2656   -1.6455    0.0676 C   0  0  0  0  0  0  0  0  0  0  0  0
   -0.8871   -0.3603    0.3014 C   0  0  0  0  0  0  0  0  0  0  0  0
    0.3547    0.2211    0.4207 C   0  0  0  0  0  0  0  0  0  0  0  0
    0.1257    1.5596    0.6575 C   0  0  0  0  0  0  0  0  0  0  0  0
   -1.2251    1.7620    0.6771 N   0  0  0  0  0  0  0  0  0  0  0  0
   -1.7713    3.0892    0.9081 C   0  0  1  0  0  0  0  0  0  0  0  0
   -0.9757    4.0609    0.1063 C   0  0  0  0  0  0  0  0  0  0  0  0
   -1.6304    5.3733   -0.1303 C   0  0  0  0  0  0  0  0  0  0  0  0
   -3.1032    5.2926   -0.4168 C   0  0  2  0  0  0  0  0  0  0  0  0
   -3.5993    6.5823   -0.5222 O   0  0  0  0  0  0  0  0  0  0  0  0
   -3.7335    4.5519    0.7700 C   0  0  0  0  0  0  0  0  0  0  0  0
   -3.2373    3.1112    0.6503 C   0  0  0  0  0  0  0  0  0  0  0  0
   -1.8641    0.6120    0.4634 C   0  0  0  0  0  0  0  0  0  0  0  0
   -3.1439    0.2903    0.3908 N   0  0  0  0  0  0  0  0  0  0  0  0
    1.6932   -0.3854    0.3251 C   0  0  0  0  0  0  0  0  0  0  0  0
    2.6681   -0.0885    1.2655 C   0  0  0  0  0  0  0  0  0  0  0  0
    3.9220   -0.6412    1.1920 C   0  0  0  0  0  0  0  0  0  0  0  0
    4.2157   -1.5135    0.1552 C   0  0  0  0  0  0  0  0  0  0  0  0
    3.2458   -1.8020   -0.7709 C   0  0  0  0  0  0  0  0  0  0  0  0
    1.9970   -1.2514   -0.6977 C   0  0  0  0  0  0  0  0  0  0  0  0
    5.8172   -2.2209    0.0591 S   0  0  0  0  0  0  0  0  0  0  0  0
    6.3183   -2.3256    1.4905 O   0  0  0  0  0  0  0  0  0  0  0  0
    5.7237   -3.6145   -0.5001 O   0  0  0  0  0  0  0  0  0  0  0  0
    6.8122   -1.2120   -0.8903 N   0  0  0  0  0  0  0  0  0  0  0  0
    7.0012    0.1053   -0.3749 C   0  0  0  0  0  0  0  0  0  0  0  0
    8.1837    0.0981    0.5673 C   0  0  0  0  0  0  0  0  0  0  0  0
    9.3251   -0.1640   -0.2068 O   0  0  0  0  0  0  0  0  0  0  0  0
    9.2448   -1.5163   -0.5741 C   0  0  0  0  0  0  0  0  0  0  0  0
    8.0140   -1.8187   -1.3633 C   0  0  0  0  0  0  0  0  0  0  0  0
   -8.7190   -5.6587    0.0089 H   0  0  0  0  0  0  0  0  0  0  0  0
   -9.0640   -3.8744   -0.2145 H   0  0  0  0  0  0  0  0  0  0  0  0
   -8.7372   -4.9484   -1.6404 H   0  0  0  0  0  0  0  0  0  0  0  0
   -6.4471   -4.7003   -1.4231 H   0  0  0  0  0  0  0  0  0  0  0  0
   -6.5387   -4.9834    0.3305 H   0  0  0  0  0  0  0  0  0  0  0  0
   -7.2561   -2.3216   -1.0045 H   0  0  0  0  0  0  0  0  0  0  0  0
   -7.1676   -2.7324    0.7996 H   0  0  0  0  0  0  0  0  0  0  0  0
   -4.8092   -2.9715   -1.1600 H   0  0  0  0  0  0  0  0  0  0  0  0
   -4.8028   -3.3320    0.5858 H   0  0  0  0  0  0  0  0  0  0  0  0
   -5.6229   -0.5699    0.2078 H   0  0  0  0  0  0  0  0  0  0  0  0
   -0.5045   -2.4017   -0.0570 H   0  0  0  0  0  0  0  0  0  0  0  0
    0.9019    2.3025    0.8001 H   0  0  0  0  0  0  0  0  0  0  0  0
   -1.6235    3.2854    2.0070 H   0  0  0  0  0  0  0  0  0  0  0  0
   -0.0256    4.2611    0.6831 H   0  0  0  0  0  0  0  0  0  0  0  0
   -0.6202    3.5865   -0.8446 H   0  0  0  0  0  0  0  0  0  0  0  0
   -1.1535    5.8334   -1.0408 H   0  0  0  0  0  0  0  0  0  0  0  0
   -1.4763    6.1110    0.6873 H   0  0  0  0  0  0  0  0  0  0  0  0
   -3.2773    4.6678   -1.2959 H   0  0  0  0  0  0  0  0  0  0  0  0
   -4.4984    6.6829   -0.1120 H   0  0  0  0  0  0  0  0  0  0  0  0
   -3.2695    5.0140    1.6802 H   0  0  0  0  0  0  0  0  0  0  0  0
   -4.8199    4.6267    0.7735 H   0  0  0  0  0  0  0  0  0  0  0  0
   -3.7409    2.5619    1.4892 H   0  0  0  0  0  0  0  0  0  0  0  0
   -3.5355    2.7467   -0.3377 H   0  0  0  0  0  0  0  0  0  0  0  0
    2.4044    0.6032    2.0708 H   0  0  0  0  0  0  0  0  0  0  0  0
    4.6361   -0.3680    1.9572 H   0  0  0  0  0  0  0  0  0  0  0  0
    3.4693   -2.4848   -1.5859 H   0  0  0  0  0  0  0  0  0  0  0  0
    1.2147   -1.4730   -1.4327 H   0  0  0  0  0  0  0  0  0  0  0  0
    6.0865    0.4821    0.1075 H   0  0  0  0  0  0  0  0  0  0  0  0
    7.3021    0.7524   -1.2326 H   0  0  0  0  0  0  0  0  0  0  0  0
    8.2865    1.1273    0.9726 H   0  0  0  0  0  0  0  0  0  0  0  0
    8.1242   -0.6622    1.3441 H   0  0  0  0  0  0  0  0  0  0  0  0
   10.1233   -1.6802   -1.2642 H   0  0  0  0  0  0  0  0  0  0  0  0
    9.3878   -2.1503    0.3129 H   0  0  0  0  0  0  0  0  0  0  0  0
    8.2044   -1.5627   -2.4414 H   0  0  0  0  0  0  0  0  0  0  0  0
    7.8942   -2.9356   -1.3665 H   0  0  0  0  0  0  0  0  0  0  0  0
  1  2  1  0
  2  3  1  0
  3  4  1  0
  4  5  1  0
  5  6  1  0
  6  7  2  0
  7  8  1  0
  8  9  2  0
  9 10  1  0
 10 11  2  0
 11 12  1  0
 12 13  1  0
 13 14  1  0
 14 15  1  0
 15 16  1  0
 16 17  1  0
 16 18  1  0
 18 19  1  0
 12 20  1  0
 20 21  2  0
 10 22  1  0
 22 23  2  0
 23 24  1  0
 24 25  2  0
 25 26  1  0
 26 27  2  0
 25 28  1  0
 28 29  2  0
 28 30  2  0
 28 31  1  0
 31 32  1  0
 32 33  1  0
 33 34  1  0
 34 35  1  0
 35 36  1  0
 21  6  1  0
 27 22  1  0
 36 31  1  0
 20  9  1  0
 19 13  1  0
  1 37  1  0
  1 38  1  0
  1 39  1  0
  2 40  1  0
  2 41  1  0
  3 42  1  0
  3 43  1  0
  4 44  1  0
  4 45  1  0
  5 46  1  0
  8 47  1  0
 11 48  1  0
 13 49  1  1
 14 50  1  0
 14 51  1  0
 15 52  1  0
 15 53  1  0
 16 54  1  6
 17 55  1  0
 18 56  1  0
 18 57  1  0
 19 58  1  0
 19 59  1  0
 23 60  1  0
 24 61  1  0
 26 62  1  0
 27 63  1  0
 32 64  1  0
 32 65  1  0
 33 66  1  0
 33 67  1  0
 35 68  1  0
 35 69  1  0
 36 70  1  0
 36 71  1  0
M  END
$$$$
[H]O[C@]1([H])C([H])([H])C([H])([H])[C@@]([H])(n2c([H])c(-c3c([H])c([H])c(S(=O)(=O)C([H])([H])[H])c(F)c3[H])c3c([H])nc(N([H])C([H])([H])C([H])([H])C([H])([H])C([H])([H])[H])nc32)C([H])([H])C1([H])[H]
     RDKit          3D

 61 64  0  0  0  0  0  0  0  0999 V2000
   -5.9368   -2.7219    1.3372 C   0  0  0  0  0  0  0  0  0  0  0  0
   -5.8108   -3.2812   -0.0412 C   0  0  0  0  0  0  0  0  0  0  0  0
   -5.5883   -2.2395   -1.0954 C   0  0  0  0  0  0  0  0  0  0  0  0
   -4.3521   -1.4339   -0.8972 C   0  0  0  0  0  0  0  0  0  0  0  0
   -3.1451   -2.2460   -0.8979 N   0  0  0  0  0  0  0  0  0  0  0  0
   -1.8560   -1.6705   -0.7234 C   0  0  0  0  0  0  0  0  0  0  0  0
   -0.7872   -2.4863   -0.7358 N   0  0  0  0  0  0  0  0  0  0  0  0
    0.4779   -2.0399   -0.5790 C   0  0  0  0  0  0  0  0  0  0  0  0
    0.6990   -0.6980   -0.3981 C   0  0  0  0  0  0  0  0  0  0  0  0
    1.8496    0.0287   -0.2160 C   0  0  0  0  0  0  0  0  0  0  0  0
    1.4160    1.3539   -0.0897 C   0  0  0  0  0  0  0  0  0  0  0  0
    0.0757    1.3929   -0.1940 N   0  0  0  0  0  0  0  0  0  0  0  0
   -0.7481    2.5819   -0.1161 C   0  0  1  0  0  0  0  0  0  0  0  0
   -1.7075    2.4566    1.0413 C   0  0  0  0  0  0  0  0  0  0  0  0
   -2.4021    3.7433    1.3592 C   0  0  0  0  0  0  0  0  0  0  0  0
   -2.1339    4.8405    0.3788 C   0  0  2  0  0  0  0  0  0  0  0  0
   -2.7380    4.6556   -0.8524 O   0  0  0  0  0  0  0  0  0  0  0  0
   -0.6618    5.0560    0.1701 C   0  0  0  0  0  0  0  0  0  0  0  0
    0.1256    3.7879    0.1548 C   0  0  0  0  0  0  0  0  0  0  0  0
   -0.3987    0.1428   -0.3849 C   0  0  0  0  0  0  0  0  0  0  0  0
   -1.6457   -0.3697   -0.5483 N   0  0  0  0  0  0  0  0  0  0  0  0
    3.2282   -0.4411   -0.1632 C   0  0  0  0  0  0  0  0  0  0  0  0
    4.0795    0.0181    0.8307 C   0  0  0  0  0  0  0  0  0  0  0  0
    5.4000   -0.4130    0.9027 C   0  0  0  0  0  0  0  0  0  0  0  0
    5.8854   -1.3034   -0.0117 C   0  0  0  0  0  0  0  0  0  0  0  0
    5.0430   -1.7611   -0.9996 C   0  0  0  0  0  0  0  0  0  0  0  0
    5.4773   -2.6345   -1.9165 F   0  0  0  0  0  0  0  0  0  0  0  0
    3.7253   -1.3387   -1.0815 C   0  0  0  0  0  0  0  0  0  0  0  0
    7.5324   -1.8917    0.0129 S   0  0  0  0  0  0  0  0  0  0  0  0
    7.4619   -3.6652    0.2022 C   0  0  0  0  0  0  0  0  0  0  0  0
    8.1168   -1.6237   -1.3535 O   0  0  0  0  0  0  0  0  0  0  0  0
    8.3183   -1.2482    1.0912 O   0  0  0  0  0  0  0  0  0  0  0  0
   -6.0689   -1.6293    1.3670 H   0  0  0  0  0  0  0  0  0  0  0  0
   -6.6975   -3.2475    1.9558 H   0  0  0  0  0  0  0  0  0  0  0  0
   -4.9565   -2.9197    1.8599 H   0  0  0  0  0  0  0  0  0  0  0  0
   -6.7709   -3.7994   -0.2803 H   0  0  0  0  0  0  0  0  0  0  0  0
   -5.0265   -4.0760   -0.1181 H   0  0  0  0  0  0  0  0  0  0  0  0
   -5.4804   -2.7847   -2.0703 H   0  0  0  0  0  0  0  0  0  0  0  0
   -6.4455   -1.5641   -1.1689 H   0  0  0  0  0  0  0  0  0  0  0  0
   -4.4171   -0.8866    0.0835 H   0  0  0  0  0  0  0  0  0  0  0  0
   -4.3102   -0.6658   -1.6964 H   0  0  0  0  0  0  0  0  0  0  0  0
   -3.2791   -3.2715   -1.0333 H   0  0  0  0  0  0  0  0  0  0  0  0
    1.3322   -2.7013   -0.5891 H   0  0  0  0  0  0  0  0  0  0  0  0
    2.1214    2.1529    0.0651 H   0  0  0  0  0  0  0  0  0  0  0  0
   -1.2274    2.7211   -1.0841 H   0  0  0  0  0  0  0  0  0  0  0  0
   -1.0969    2.1356    1.9304 H   0  0  0  0  0  0  0  0  0  0  0  0
   -2.4701    1.6907    0.7916 H   0  0  0  0  0  0  0  0  0  0  0  0
   -3.5207    3.5966    1.3809 H   0  0  0  0  0  0  0  0  0  0  0  0
   -2.1175    4.0996    2.3623 H   0  0  0  0  0  0  0  0  0  0  0  0
   -2.5496    5.7812    0.8125 H   0  0  0  0  0  0  0  0  0  0  0  0
   -2.1924    5.0405   -1.5873 H   0  0  0  0  0  0  0  0  0  0  0  0
   -0.5189    5.6567   -0.7750 H   0  0  0  0  0  0  0  0  0  0  0  0
   -0.2698    5.7193    0.9876 H   0  0  0  0  0  0  0  0  0  0  0  0
    0.6786    3.6312    1.1171 H   0  0  0  0  0  0  0  0  0  0  0  0
    0.9182    3.8959   -0.6287 H   0  0  0  0  0  0  0  0  0  0  0  0
    3.7642    0.7199    1.5835 H   0  0  0  0  0  0  0  0  0  0  0  0
    6.0552   -0.0535    1.6755 H   0  0  0  0  0  0  0  0  0  0  0  0
    3.0985   -1.7225   -1.8740 H   0  0  0  0  0  0  0  0  0  0  0  0
    8.4867   -4.0040    0.4566 H   0  0  0  0  0  0  0  0  0  0  0  0
    7.1741   -4.1491   -0.7362 H   0  0  0  0  0  0  0  0  0  0  0  0
    6.7869   -3.9168    1.0270 H   0  0  0  0  0  0  0  0  0  0  0  0
  1  2  1  0
  2  3  1  0
  3  4  1  0
  4  5  1  0
  5  6  1  0
  6  7  2  0
  7  8  1  0
  8  9  2  0
  9 10  1  0
 10 11  2  0
 11 12  1  0
 12 13  1  0
 13 14  1  0
 14 15  1  0
 15 16  1  0
 16 17  1  0
 16 18  1  0
 18 19  1  0
 12 20  1  0
 20 21  2  0
 10 22  1  0
 22 23  2  0
 23 24  1  0
 24 25  2  0
 25 26  1  0
 26 27  1  0
 26 28  2  0
 25 29  1  0
 29 30  1  0
 29 31  2  0
 29 32  2  0
 21  6  1  0
 28 22  1  0
 20  9  1  0
 19 13  1  0
  1 33  1  0
  1 34  1  0
  1 35  1  0
  2 36  1  0
  2 37  1  0
  3 38  1  0
  3 39  1  0
  4 40  1  0
  4 41  1  0
  5 42  1  0
  8 43  1  0
 11 44  1  0
 13 45  1  6
 14 46  1  0
 14 47  1  0
 15 48  1  0
 15 49  1  0
 16 50  1  1
 17 51  1  0
 18 52  1  0
 18 53  1  0
 19 54  1  0
 19 55  1  0
 23 56  1  0
 24 57  1  0
 28 58  1  0
 30 59  1  0
 30 60  1  0
 30 61  1  0
M  END
$$$$
[H]C1=C([H])C([H])(F)C([H])([H])C([H])=C1N([H])C(=O)C1(C(=O)N([H])c2c([H])c([H])c(Oc3c([H])c([H])nc4c([H])c(OC([H])([H])C([H])([H])C([H])([H])N5C([H])([H])C([H])([H])C([H])([H])C([H])([H])C5([H])[H])c(OC([H])([H])[H])c([H])c34)c(F)c2[H])C([H])([H])C1([H])[H]
     RDKit          3D

 84 89  0  0  0  0  0  0  0  0999 V2000
    3.8941   -3.7132    0.1913 C   0  0  0  0  0  0  0  0  0  0  0  0
    4.6565   -2.6079   -0.2681 O   0  0  0  0  0  0  0  0  0  0  0  0
    4.0305   -1.4283   -0.6539 C   0  0  0  0  0  0  0  0  0  0  0  0
    2.6597   -1.2972   -0.6016 C   0  0  0  0  0  0  0  0  0  0  0  0
    2.0436   -0.1222   -0.9870 C   0  0  0  0  0  0  0  0  0  0  0  0
    0.6510    0.0367   -0.9451 C   0  0  0  0  0  0  0  0  0  0  0  0
   -0.0755   -1.0256   -0.4996 O   0  0  0  0  0  0  0  0  0  0  0  0
   -1.4492   -1.0402   -0.3255 C   0  0  0  0  0  0  0  0  0  0  0  0
   -2.2606   -1.8743   -1.0649 C   0  0  0  0  0  0  0  0  0  0  0  0
   -3.6423   -1.8715   -0.8692 C   0  0  0  0  0  0  0  0  0  0  0  0
   -4.2526   -1.0654    0.0403 C   0  0  0  0  0  0  0  0  0  0  0  0
   -5.6503   -1.0411    0.3103 N   0  0  0  0  0  0  0  0  0  0  0  0
   -6.4608   -2.1680    0.2347 C   0  0  0  0  0  0  0  0  0  0  0  0
   -5.8498   -3.2675   -0.0680 O   0  0  0  0  0  0  0  0  0  0  0  0
   -7.9176   -2.3168    0.4538 C   0  0  0  0  0  0  0  0  0  0  0  0
   -8.5358   -3.5604   -0.1118 C   0  0  0  0  0  0  0  0  0  0  0  0
   -8.2258   -3.5095    1.3287 C   0  0  0  0  0  0  0  0  0  0  0  0
   -8.8577   -1.1862    0.5085 C   0  0  0  0  0  0  0  0  0  0  0  0
  -10.0295   -1.5183    0.9875 O   0  0  0  0  0  0  0  0  0  0  0  0
   -8.6712    0.1344    0.1256 N   0  0  0  0  0  0  0  0  0  0  0  0
   -9.7018    1.1257    0.2594 C   0  0  0  0  0  0  0  0  0  0  0  0
  -10.1675    1.7824   -0.7844 C   0  0  0  0  0  0  0  0  0  0  0  0
  -11.2276    2.8066   -0.6621 C   0  0  0  0  0  0  0  0  0  0  0  0
  -11.7828    3.0373    0.6810 C   0  0  0  0  0  0  0  0  0  0  0  0
  -13.1708    2.8095    0.6256 F   0  0  0  0  0  0  0  0  0  0  0  0
  -11.1912    2.2557    1.7682 C   0  0  0  0  0  0  0  0  0  0  0  0
  -10.2373    1.3788    1.5761 C   0  0  0  0  0  0  0  0  0  0  0  0
   -3.4356   -0.2282    0.7824 C   0  0  0  0  0  0  0  0  0  0  0  0
   -2.0698   -0.2231    0.5976 C   0  0  0  0  0  0  0  0  0  0  0  0
   -1.3225    0.6137    1.3883 F   0  0  0  0  0  0  0  0  0  0  0  0
    0.0582    1.2154   -1.3358 C   0  0  0  0  0  0  0  0  0  0  0  0
    0.8455    2.2647   -1.7771 C   0  0  0  0  0  0  0  0  0  0  0  0
    2.1789    2.1086   -1.8152 N   0  0  0  0  0  0  0  0  0  0  0  0
    2.7728    0.9564   -1.4354 C   0  0  0  0  0  0  0  0  0  0  0  0
    4.1549    0.8104   -1.4827 C   0  0  0  0  0  0  0  0  0  0  0  0
    4.7873   -0.3669   -1.0977 C   0  0  0  0  0  0  0  0  0  0  0  0
    6.1653   -0.5173   -1.1421 O   0  0  0  0  0  0  0  0  0  0  0  0
    6.9247    0.5946   -1.5969 C   0  0  0  0  0  0  0  0  0  0  0  0
    8.3981    0.2160   -1.5674 C   0  0  0  0  0  0  0  0  0  0  0  0
    8.7652   -0.1374   -0.1628 C   0  0  0  0  0  0  0  0  0  0  0  0
    8.5410    0.9713    0.7124 N   0  0  0  0  0  0  0  0  0  0  0  0
    8.8626    0.5943    2.0908 C   0  0  0  0  0  0  0  0  0  0  0  0
   10.1341    1.2231    2.5590 C   0  0  0  0  0  0  0  0  0  0  0  0
   11.2236    1.2674    1.5088 C   0  0  0  0  0  0  0  0  0  0  0  0
   10.7617    1.8537    0.2168 C   0  0  0  0  0  0  0  0  0  0  0  0
    9.2894    2.1446    0.3223 C   0  0  0  0  0  0  0  0  0  0  0  0
    4.5297   -4.6049    0.2046 H   0  0  0  0  0  0  0  0  0  0  0  0
    3.0368   -3.9207   -0.4537 H   0  0  0  0  0  0  0  0  0  0  0  0
    3.5857   -3.4838    1.2349 H   0  0  0  0  0  0  0  0  0  0  0  0
    2.0594   -2.1200   -0.2574 H   0  0  0  0  0  0  0  0  0  0  0  0
   -1.7910   -2.5214   -1.7915 H   0  0  0  0  0  0  0  0  0  0  0  0
   -4.2011   -2.5275   -1.4890 H   0  0  0  0  0  0  0  0  0  0  0  0
   -5.9930   -0.0843    0.6053 H   0  0  0  0  0  0  0  0  0  0  0  0
   -7.8776   -4.1574   -0.7922 H   0  0  0  0  0  0  0  0  0  0  0  0
   -9.5862   -3.5314   -0.4675 H   0  0  0  0  0  0  0  0  0  0  0  0
   -9.0668   -3.4296    2.0590 H   0  0  0  0  0  0  0  0  0  0  0  0
   -7.4089   -4.1370    1.6985 H   0  0  0  0  0  0  0  0  0  0  0  0
   -7.7902    0.4562   -0.3104 H   0  0  0  0  0  0  0  0  0  0  0  0
   -9.7650    1.5684   -1.7719 H   0  0  0  0  0  0  0  0  0  0  0  0
  -10.7674    3.7837   -1.0343 H   0  0  0  0  0  0  0  0  0  0  0  0
  -12.0168    2.5426   -1.4224 H   0  0  0  0  0  0  0  0  0  0  0  0
  -11.6408    4.1294    0.9469 H   0  0  0  0  0  0  0  0  0  0  0  0
  -11.5771    2.4212    2.8054 H   0  0  0  0  0  0  0  0  0  0  0  0
   -9.8450    0.8363    2.4194 H   0  0  0  0  0  0  0  0  0  0  0  0
   -3.9079    0.4182    1.5091 H   0  0  0  0  0  0  0  0  0  0  0  0
   -0.9995    1.3667   -1.3304 H   0  0  0  0  0  0  0  0  0  0  0  0
    0.3645    3.1827   -2.0801 H   0  0  0  0  0  0  0  0  0  0  0  0
    4.7341    1.6500   -1.8317 H   0  0  0  0  0  0  0  0  0  0  0  0
    6.7902    1.4564   -0.9075 H   0  0  0  0  0  0  0  0  0  0  0  0
    6.6790    0.8981   -2.6163 H   0  0  0  0  0  0  0  0  0  0  0  0
    8.5172   -0.6510   -2.2580 H   0  0  0  0  0  0  0  0  0  0  0  0
    8.9717    1.0419   -1.9999 H   0  0  0  0  0  0  0  0  0  0  0  0
    8.1514   -1.0174    0.1504 H   0  0  0  0  0  0  0  0  0  0  0  0
    9.8226   -0.4865   -0.1718 H   0  0  0  0  0  0  0  0  0  0  0  0
    8.8820   -0.5200    2.1502 H   0  0  0  0  0  0  0  0  0  0  0  0
    8.0335    0.9450    2.7222 H   0  0  0  0  0  0  0  0  0  0  0  0
   10.5337    0.5668    3.3880 H   0  0  0  0  0  0  0  0  0  0  0  0
    9.9539    2.2035    3.0123 H   0  0  0  0  0  0  0  0  0  0  0  0
   11.7159    0.2783    1.3726 H   0  0  0  0  0  0  0  0  0  0  0  0
   12.0186    1.9324    1.9308 H   0  0  0  0  0  0  0  0  0  0  0  0
   10.9303    1.1781   -0.6500 H   0  0  0  0  0  0  0  0  0  0  0  0
   11.3098    2.7776   -0.0117 H   0  0  0  0  0  0  0  0  0  0  0  0
    9.0848    2.9287    1.0867 H   0  0  0  0  0  0  0  0  0  0  0  0
    8.9162    2.5157   -0.6375 H   0  0  0  0  0  0  0  0  0  0  0  0
  1  2  1  0
  2  3  1  0
  3  4  2  0
  4  5  1  0
  5  6  2  0
  6  7  1  0
  7  8  1  0
  8  9  2  0
  9 10  1  0
 10 11  2  0
 11 12  1  0
 12 13  1  0
 13 14  2  0
 13 15  1  0
 15 16  1  0
 16 17  1  0
 15 18  1  0
 18 19  2  0
 18 20  1  0
 20 21  1  0
 21 22  2  0
 22 23  1  0
 23 24  1  0
 24 25  1  0
 24 26  1  0
 26 27  2  0
 11 28  1  0
 28 29  2  0
 29 30  1  0
  6 31  1  0
 31 32  2  0
 32 33  1  0
 33 34  2  0
 34 35  1  0
 35 36  2  0
 36 37  1  0
 37 38  1  0
 38 39  1  0
 39 40  1  0
 40 41  1  0
 41 42  1  0
 42 43  1  0
 43 44  1  0
 44 45  1  0
 45 46  1  0
 36  3  1  0
 46 41  1  0
 34  5  1  0
 29  8  1  0
 17 15  1  0
 27 21  1  0
  1 47  1  0
  1 48  1  0
  1 49  1  0
  4 50  1  0
  9 51  1  0
 10 52  1  0
 12 53  1  0
 16 54  1  0
 16 55  1  0
 17 56  1  0
 17 57  1  0
 20 58  1  0
 22 59  1  0
 23 60  1  0
 23 61  1  0
 24 62  1  0
 26 63  1  0
 27 64  1  0
 28 65  1  0
 31 66  1  0
 32 67  1  0
 35 68  1  0
 38 69  1  0
 38 70  1  0
 39 71  1  0
 39 72  1  0
 40 73  1  0
 40 74  1  0
 42 75  1  0
 42 76  1  0
 43 77  1  0
 43 78  1  0
 44 79  1  0
 44 80  1  0
 45 81  1  0
 45 82  1  0
 46 83  1  0
 46 84  1  0
M  END
$$$$
[H]O[C@]1([H])C([H])([H])C([H])([H])[C@@]([H])(n2c([H])c(-c3c([H])c([H])c(S(=O)(=O)N4C([H])([H])C([H])([H])N(C([H])([H])[H])C([H])([H])C4([H])[H])c([H])c3[H])c3c([H])nc(N([H])C([H])([H])C([H])([H])C([H])([H])C([H])([H])[H])nc32)C([H])([H])C1([H])[H]
     RDKit          3D

 75 79  0  0  0  0  0  0  0  0999 V2000
   -7.7329   -3.8274   -0.9882 C   0  0  0  0  0  0  0  0  0  0  0  0
   -6.2343   -3.8685   -0.9811 C   0  0  0  0  0  0  0  0  0  0  0  0
   -5.6736   -3.9257    0.4243 C   0  0  0  0  0  0  0  0  0  0  0  0
   -6.0684   -2.7450    1.2476 C   0  0  0  0  0  0  0  0  0  0  0  0
   -5.6483   -1.4733    0.7375 N   0  0  0  0  0  0  0  0  0  0  0  0
   -4.2778   -1.1131    0.5765 C   0  0  0  0  0  0  0  0  0  0  0  0
   -3.2877   -1.9660    0.9052 N   0  0  0  0  0  0  0  0  0  0  0  0
   -1.9958   -1.6877    0.7782 C   0  0  0  0  0  0  0  0  0  0  0  0
   -1.6197   -0.4396    0.2750 C   0  0  0  0  0  0  0  0  0  0  0  0
   -0.4414    0.1806    0.0122 C   0  0  0  0  0  0  0  0  0  0  0  0
   -0.7512    1.4149   -0.4777 C   0  0  0  0  0  0  0  0  0  0  0  0
   -2.0801    1.5970   -0.5340 N   0  0  0  0  0  0  0  0  0  0  0  0
   -2.8299    2.7567   -0.9886 C   0  0  1  0  0  0  0  0  0  0  0  0
   -3.8453    3.1934    0.0332 C   0  0  0  0  0  0  0  0  0  0  0  0
   -3.6486    4.6089    0.4968 C   0  0  0  0  0  0  0  0  0  0  0  0
   -3.5108    5.5950   -0.6214 C   0  0  2  0  0  0  0  0  0  0  0  0
   -4.7370    5.9356   -1.1893 O   0  0  0  0  0  0  0  0  0  0  0  0
   -2.5540    5.1328   -1.6915 C   0  0  0  0  0  0  0  0  0  0  0  0
   -1.8491    3.8994   -1.1916 C   0  0  0  0  0  0  0  0  0  0  0  0
   -2.6290    0.4386   -0.0636 C   0  0  0  0  0  0  0  0  0  0  0  0
   -3.9173    0.0889    0.0918 N   0  0  0  0  0  0  0  0  0  0  0  0
    0.8974   -0.3525    0.2113 C   0  0  0  0  0  0  0  0  0  0  0  0
    1.2706   -1.0041    1.3722 C   0  0  0  0  0  0  0  0  0  0  0  0
    2.5464   -1.5026    1.5359 C   0  0  0  0  0  0  0  0  0  0  0  0
    3.5162   -1.3830    0.5635 C   0  0  0  0  0  0  0  0  0  0  0  0
    3.1538   -0.7347   -0.5978 C   0  0  0  0  0  0  0  0  0  0  0  0
    1.8813   -0.2361   -0.7642 C   0  0  0  0  0  0  0  0  0  0  0  0
    5.1350   -2.0157    0.7701 S   0  0  0  0  0  0  0  0  0  0  0  0
    5.0387   -3.2608    1.5884 O   0  0  0  0  0  0  0  0  0  0  0  0
    5.6616   -2.3292   -0.6085 O   0  0  0  0  0  0  0  0  0  0  0  0
    6.1241   -0.8259    1.4789 N   0  0  0  0  0  0  0  0  0  0  0  0
    6.2809    0.3644    0.7189 C   0  0  0  0  0  0  0  0  0  0  0  0
    7.1910    0.1735   -0.4299 C   0  0  0  0  0  0  0  0  0  0  0  0
    8.3266   -0.6215   -0.2469 N   0  0  0  0  0  0  0  0  0  0  0  0
    8.9912   -1.0780   -1.4150 C   0  0  0  0  0  0  0  0  0  0  0  0
    8.4448   -1.4101    0.9014 C   0  0  0  0  0  0  0  0  0  0  0  0
    7.3970   -1.2749    1.9368 C   0  0  0  0  0  0  0  0  0  0  0  0
   -8.1341   -4.3104   -0.0719 H   0  0  0  0  0  0  0  0  0  0  0  0
   -8.0938   -4.4082   -1.8564 H   0  0  0  0  0  0  0  0  0  0  0  0
   -8.1329   -2.7959   -1.1172 H   0  0  0  0  0  0  0  0  0  0  0  0
   -5.9062   -4.7916   -1.4887 H   0  0  0  0  0  0  0  0  0  0  0  0
   -5.7922   -3.0194   -1.5314 H   0  0  0  0  0  0  0  0  0  0  0  0
   -4.6047   -4.0954    0.3636 H   0  0  0  0  0  0  0  0  0  0  0  0
   -6.1014   -4.8647    0.8866 H   0  0  0  0  0  0  0  0  0  0  0  0
   -7.1487   -2.7235    1.4905 H   0  0  0  0  0  0  0  0  0  0  0  0
   -5.5397   -2.8674    2.2393 H   0  0  0  0  0  0  0  0  0  0  0  0
   -6.3633   -0.7695    0.4676 H   0  0  0  0  0  0  0  0  0  0  0  0
   -1.1919   -2.3576    1.0348 H   0  0  0  0  0  0  0  0  0  0  0  0
   -0.0271    2.1816   -0.7936 H   0  0  0  0  0  0  0  0  0  0  0  0
   -3.3343    2.5330   -1.9373 H   0  0  0  0  0  0  0  0  0  0  0  0
   -3.7342    2.5381    0.9279 H   0  0  0  0  0  0  0  0  0  0  0  0
   -4.8602    3.0596   -0.3544 H   0  0  0  0  0  0  0  0  0  0  0  0
   -2.7697    4.7157    1.1698 H   0  0  0  0  0  0  0  0  0  0  0  0
   -4.5470    4.8905    1.0849 H   0  0  0  0  0  0  0  0  0  0  0  0
   -3.0801    6.5334   -0.1866 H   0  0  0  0  0  0  0  0  0  0  0  0
   -5.1101    6.7321   -0.7469 H   0  0  0  0  0  0  0  0  0  0  0  0
   -3.0624    4.9157   -2.6536 H   0  0  0  0  0  0  0  0  0  0  0  0
   -1.7713    5.8857   -1.9237 H   0  0  0  0  0  0  0  0  0  0  0  0
   -1.0770    3.5441   -1.9034 H   0  0  0  0  0  0  0  0  0  0  0  0
   -1.3869    4.1008   -0.2076 H   0  0  0  0  0  0  0  0  0  0  0  0
    0.5094   -1.1042    2.1534 H   0  0  0  0  0  0  0  0  0  0  0  0
    2.7986   -2.0057    2.4585 H   0  0  0  0  0  0  0  0  0  0  0  0
    3.8832   -0.6131   -1.3990 H   0  0  0  0  0  0  0  0  0  0  0  0
    1.6066    0.2717   -1.6806 H   0  0  0  0  0  0  0  0  0  0  0  0
    6.6903    1.1520    1.3841 H   0  0  0  0  0  0  0  0  0  0  0  0
    5.2761    0.6644    0.3200 H   0  0  0  0  0  0  0  0  0  0  0  0
    7.5367    1.2032   -0.7481 H   0  0  0  0  0  0  0  0  0  0  0  0
    6.6121   -0.1794   -1.3338 H   0  0  0  0  0  0  0  0  0  0  0  0
    8.4210   -0.7539   -2.3120 H   0  0  0  0  0  0  0  0  0  0  0  0
   10.0643   -0.8039   -1.4707 H   0  0  0  0  0  0  0  0  0  0  0  0
    8.9404   -2.2019   -1.4235 H   0  0  0  0  0  0  0  0  0  0  0  0
    9.4460   -1.2147    1.3851 H   0  0  0  0  0  0  0  0  0  0  0  0
    8.5016   -2.4984    0.6109 H   0  0  0  0  0  0  0  0  0  0  0  0
    7.2319   -2.2628    2.4580 H   0  0  0  0  0  0  0  0  0  0  0  0
    7.7266   -0.5843    2.7521 H   0  0  0  0  0  0  0  0  0  0  0  0
  1  2  1  0
  2  3  1  0
  3  4  1  0
  4  5  1  0
  5  6  1  0
  6  7  2  0
  7  8  1  0
  8  9  2  0
  9 10  1  0
 10 11  2  0
 11 12  1  0
 12 13  1  0
 13 14  1  0
 14 15  1  0
 15 16  1  0
 16 17  1  0
 16 18  1  0
 18 19  1  0
 12 20  1  0
 20 21  2  0
 10 22  1  0
 22 23  2  0
 23 24  1  0
 24 25  2  0
 25 26  1  0
 26 27  2  0
 25 28  1  0
 28 29  2  0
 28 30  2  0
 28 31  1  0
 31 32  1  0
 32 33  1  0
 33 34  1  0
 34 35  1  0
 34 36  1  0
 36 37  1  0
 21  6  1  0
 27 22  1  0
 37 31  1  0
 20  9  1  0
 19 13  1  0
  1 38  1  0
  1 39  1  0
  1 40  1  0
  2 41  1  0
  2 42  1  0
  3 43  1  0
  3 44  1  0
  4 45  1  0
  4 46  1  0
  5 47  1  0
  8 48  1  0
 11 49  1  0
 13 50  1  6
 14 51  1  0
 14 52  1  0
 15 53  1  0
 15 54  1  0
 16 55  1  1
 17 56  1  0
 18 57  1  0
 18 58  1  0
 19 59  1  0
 19 60  1  0
 23 61  1  0
 24 62  1  0
 26 63  1  0
 27 64  1  0
 32 65  1  0
 32 66  1  0
 33 67  1  0
 33 68  1  0
 35 69  1  0
 35 70  1  0
 35 71  1  0
 36 72  1  0
 36 73  1  0
 37 74  1  0
 37 75  1  0
M  END
$$$$
[H]c1nc(N([H])c2c([H])c(N([H])C(=O)c3c([H])c([H])c(C([H])([H])N4C([H])([H])C([H])([H])N(C([H])([H])[H])C([H])([H])C4([H])[H])c([H])c3[H])c([H])c([H])c2C([H])([H])[H])nc(-c2c([H])nc([H])c([H])c2[H])c1[H]
     RDKit          3D

 68 72  0  0  0  0  0  0  0  0999 V2000
   -8.7479    3.4266    0.9293 C   0  0  0  0  0  0  0  0  0  0  0  0
   -7.3650    2.9906    0.9461 N   0  0  0  0  0  0  0  0  0  0  0  0
   -6.6451    3.4513   -0.2269 C   0  0  0  0  0  0  0  0  0  0  0  0
   -6.5764    2.2780   -1.1806 C   0  0  0  0  0  0  0  0  0  0  0  0
   -5.6380    1.2558   -0.6870 N   0  0  0  0  0  0  0  0  0  0  0  0
   -4.2736    1.6578   -1.0098 C   0  0  0  0  0  0  0  0  0  0  0  0
   -3.2946    0.6359   -0.5726 C   0  0  0  0  0  0  0  0  0  0  0  0
   -2.0253    1.0618   -0.2539 C   0  0  0  0  0  0  0  0  0  0  0  0
   -1.0453    0.1713    0.1570 C   0  0  0  0  0  0  0  0  0  0  0  0
   -1.3755   -1.1564    0.2384 C   0  0  0  0  0  0  0  0  0  0  0  0
   -2.6567   -1.5624   -0.0864 C   0  0  0  0  0  0  0  0  0  0  0  0
   -3.6359   -0.6917   -0.4943 C   0  0  0  0  0  0  0  0  0  0  0  0
   -0.3686   -2.1375    0.6612 C   0  0  0  0  0  0  0  0  0  0  0  0
   -0.8262   -3.2557    0.9933 O   0  0  0  0  0  0  0  0  0  0  0  0
    0.9922   -1.8076    0.6770 N   0  0  0  0  0  0  0  0  0  0  0  0
    2.0504   -2.6623    1.0701 C   0  0  0  0  0  0  0  0  0  0  0  0
    1.8977   -3.8196    1.7948 C   0  0  0  0  0  0  0  0  0  0  0  0
    2.9989   -4.6090    2.1159 C   0  0  0  0  0  0  0  0  0  0  0  0
    4.2721   -4.2912    1.7405 C   0  0  0  0  0  0  0  0  0  0  0  0
    5.4062   -5.1875    2.1222 C   0  0  0  0  0  0  0  0  0  0  0  0
    4.4689   -3.1165    0.9995 C   0  0  0  0  0  0  0  0  0  0  0  0
    5.7802   -2.8139    0.6265 N   0  0  0  0  0  0  0  0  0  0  0  0
    6.3053   -1.7281   -0.1008 C   0  0  0  0  0  0  0  0  0  0  0  0
    7.6596   -1.6724   -0.3330 N   0  0  0  0  0  0  0  0  0  0  0  0
    8.2649   -0.7078   -0.9985 C   0  0  0  0  0  0  0  0  0  0  0  0
    7.5107    0.3436   -1.5163 C   0  0  0  0  0  0  0  0  0  0  0  0
    6.1516    0.3040   -1.2930 C   0  0  0  0  0  0  0  0  0  0  0  0
    5.6123   -0.7167   -0.6035 N   0  0  0  0  0  0  0  0  0  0  0  0
    5.2995    1.3880   -1.8159 C   0  0  0  0  0  0  0  0  0  0  0  0
    3.9372    1.3924   -1.6203 C   0  0  0  0  0  0  0  0  0  0  0  0
    3.1716    2.4275   -2.1260 C   0  0  0  0  0  0  0  0  0  0  0  0
    3.7421    3.4579   -2.8234 C   0  0  0  0  0  0  0  0  0  0  0  0
    5.0550    3.4524   -3.0112 N   0  0  0  0  0  0  0  0  0  0  0  0
    5.8318    2.4362   -2.5183 C   0  0  0  0  0  0  0  0  0  0  0  0
    3.3751   -2.3514    0.6918 C   0  0  0  0  0  0  0  0  0  0  0  0
   -5.8097    1.1620    0.7622 C   0  0  0  0  0  0  0  0  0  0  0  0
   -7.2387    1.5701    1.1168 C   0  0  0  0  0  0  0  0  0  0  0  0
   -9.1142    3.5221    1.9808 H   0  0  0  0  0  0  0  0  0  0  0  0
   -9.3769    2.7072    0.3676 H   0  0  0  0  0  0  0  0  0  0  0  0
   -8.7643    4.4440    0.4847 H   0  0  0  0  0  0  0  0  0  0  0  0
   -5.6344    3.7578    0.0558 H   0  0  0  0  0  0  0  0  0  0  0  0
   -7.1406    4.3081   -0.7102 H   0  0  0  0  0  0  0  0  0  0  0  0
   -6.1750    2.5841   -2.1694 H   0  0  0  0  0  0  0  0  0  0  0  0
   -7.5469    1.7926   -1.3113 H   0  0  0  0  0  0  0  0  0  0  0  0
   -4.0371    2.6053   -0.4506 H   0  0  0  0  0  0  0  0  0  0  0  0
   -4.1471    1.8144   -2.0969 H   0  0  0  0  0  0  0  0  0  0  0  0
   -1.7746    2.1248   -0.3233 H   0  0  0  0  0  0  0  0  0  0  0  0
   -0.0855    0.5909    0.3886 H   0  0  0  0  0  0  0  0  0  0  0  0
   -2.8828   -2.6144   -0.0116 H   0  0  0  0  0  0  0  0  0  0  0  0
   -4.6466   -1.0312   -0.7500 H   0  0  0  0  0  0  0  0  0  0  0  0
    1.2887   -0.8278    0.3716 H   0  0  0  0  0  0  0  0  0  0  0  0
    0.9348   -4.1347    2.1386 H   0  0  0  0  0  0  0  0  0  0  0  0
    2.8613   -5.5326    2.6959 H   0  0  0  0  0  0  0  0  0  0  0  0
    5.0687   -5.9213    2.8820 H   0  0  0  0  0  0  0  0  0  0  0  0
    6.2218   -4.6050    2.6395 H   0  0  0  0  0  0  0  0  0  0  0  0
    5.8132   -5.7440    1.2725 H   0  0  0  0  0  0  0  0  0  0  0  0
    6.5390   -3.5258    0.9416 H   0  0  0  0  0  0  0  0  0  0  0  0
    9.3489   -0.6840   -1.1721 H   0  0  0  0  0  0  0  0  0  0  0  0
    7.9899    1.1420   -2.0641 H   0  0  0  0  0  0  0  0  0  0  0  0
    3.4963    0.5760   -1.0694 H   0  0  0  0  0  0  0  0  0  0  0  0
    2.0921    2.3921   -1.9481 H   0  0  0  0  0  0  0  0  0  0  0  0
    3.1033    4.2511   -3.2035 H   0  0  0  0  0  0  0  0  0  0  0  0
    6.8769    2.5525   -2.7398 H   0  0  0  0  0  0  0  0  0  0  0  0
    3.4595   -1.4371    0.1220 H   0  0  0  0  0  0  0  0  0  0  0  0
   -5.0883    1.8684    1.2308 H   0  0  0  0  0  0  0  0  0  0  0  0
   -5.5964    0.1363    1.1045 H   0  0  0  0  0  0  0  0  0  0  0  0
   -7.3999    1.3363    2.1888 H   0  0  0  0  0  0  0  0  0  0  0  0
   -7.9447    0.9768    0.5168 H   0  0  0  0  0  0  0  0  0  0  0  0
  1  2  1  0
  2  3  1  0
  3  4  1  0
  4  5  1  0
  5  6  1  0
  6  7  1  0
  7  8  2  0
  8  9  1  0
  9 10  2  0
 10 11  1  0
 11 12  2  0
 10 13  1  0
 13 14  2  0
 13 15  1  0
 15 16  1  0
 16 17  2  0
 17 18  1  0
 18 19  2  0
 19 20  1  0
 19 21  1  0
 21 22  1  0
 22 23  1  0
 23 24  2  0
 24 25  1  0
 25 26  2  0
 26 27  1  0
 27 28  2  0
 27 29  1  0
 29 30  2  0
 30 31  1  0
 31 32  2  0
 32 33  1  0
 33 34  2  0
 21 35  2  0
  5 36  1  0
 36 37  1  0
 37  2  1  0
 12  7  1  0
 35 16  1  0
 28 23  1  0
 34 29  1  0
  1 38  1  0
  1 39  1  0
  1 40  1  0
  3 41  1  0
  3 42  1  0
  4 43  1  0
  4 44  1  0
  6 45  1  0
  6 46  1  0
  8 47  1  0
  9 48  1  0
 11 49  1  0
 12 50  1  0
 15 51  1  0
 17 52  1  0
 18 53  1  0
 20 54  1  0
 20 55  1  0
 20 56  1  0
 22 57  1  0
 25 58  1  0
 26 59  1  0
 30 60  1  0
 31 61  1  0
 32 62  1  0
 34 63  1  0
 35 64  1  0
 36 65  1  0
 36 66  1  0
 37 67  1  0
 37 68  1  0
M  END
$$$$
[H]c1nc2c([H])c(OC([H])([H])C([H])([H])C([H])([H])N3C([H])([H])C([H])([H])OC([H])([H])C3([H])[H])c(OC([H])([H])[H])c([H])c2c(Oc2c([H])c([H])c(N([H])C(=O)C3(C(=O)N([H])c4c([H])c([H])c(F)c([H])c4[H])C([H])([H])C3([H])[H])c([H])c2F)c1[H]
     RDKit          3D

 80 85  0  0  0  0  0  0  0  0999 V2000
   -3.8348   -0.7830   -2.5268 C   0  0  0  0  0  0  0  0  0  0  0  0
   -4.4085   -0.0831   -1.4692 O   0  0  0  0  0  0  0  0  0  0  0  0
   -3.7050    0.3915   -0.3940 C   0  0  0  0  0  0  0  0  0  0  0  0
   -2.3426    0.2299   -0.2625 C   0  0  0  0  0  0  0  0  0  0  0  0
   -1.6750    0.7344    0.8625 C   0  0  0  0  0  0  0  0  0  0  0  0
   -0.2898    0.5501    0.9662 C   0  0  0  0  0  0  0  0  0  0  0  0
    0.3435   -0.1256   -0.0602 O   0  0  0  0  0  0  0  0  0  0  0  0
    1.7161   -0.3803   -0.1332 C   0  0  0  0  0  0  0  0  0  0  0  0
    2.1597   -1.6934   -0.1033 C   0  0  0  0  0  0  0  0  0  0  0  0
    3.5189   -2.0068   -0.1774 C   0  0  0  0  0  0  0  0  0  0  0  0
    4.4887   -1.0391   -0.2815 C   0  0  0  0  0  0  0  0  0  0  0  0
    5.8792   -1.3421   -0.3734 N   0  0  0  0  0  0  0  0  0  0  0  0
    6.4824   -2.5462    0.0493 C   0  0  0  0  0  0  0  0  0  0  0  0
    5.8571   -3.4761    0.5938 O   0  0  0  0  0  0  0  0  0  0  0  0
    7.9663   -2.7108   -0.2057 C   0  0  0  0  0  0  0  0  0  0  0  0
    8.3768   -4.0792   -0.7264 C   0  0  0  0  0  0  0  0  0  0  0  0
    8.5635   -3.7277    0.7383 C   0  0  0  0  0  0  0  0  0  0  0  0
    8.7412   -1.5075   -0.5379 C   0  0  0  0  0  0  0  0  0  0  0  0
    9.2658   -1.4618   -1.7261 O   0  0  0  0  0  0  0  0  0  0  0  0
    8.9847   -0.4096    0.2987 N   0  0  0  0  0  0  0  0  0  0  0  0
    9.7265    0.7540   -0.0941 C   0  0  0  0  0  0  0  0  0  0  0  0
   10.8357    1.1147    0.5958 C   0  0  0  0  0  0  0  0  0  0  0  0
   11.5248    2.2599    0.2548 C   0  0  0  0  0  0  0  0  0  0  0  0
   11.0639    3.0368   -0.8057 C   0  0  0  0  0  0  0  0  0  0  0  0
   11.7002    4.1760   -1.1980 F   0  0  0  0  0  0  0  0  0  0  0  0
    9.9259    2.6771   -1.5228 C   0  0  0  0  0  0  0  0  0  0  0  0
    9.2822    1.5333   -1.1426 C   0  0  0  0  0  0  0  0  0  0  0  0
    4.0405    0.2679   -0.3104 C   0  0  0  0  0  0  0  0  0  0  0  0
    2.6818    0.5942   -0.2385 C   0  0  0  0  0  0  0  0  0  0  0  0
    2.2895    1.9005   -0.2942 F   0  0  0  0  0  0  0  0  0  0  0  0
    0.3644    1.0374    2.0620 C   0  0  0  0  0  0  0  0  0  0  0  0
   -0.3737    1.7049    3.0395 C   0  0  0  0  0  0  0  0  0  0  0  0
   -1.7048    1.8658    2.9116 N   0  0  0  0  0  0  0  0  0  0  0  0
   -2.3620    1.3966    1.8519 C   0  0  0  0  0  0  0  0  0  0  0  0
   -3.7219    1.5655    1.7321 C   0  0  0  0  0  0  0  0  0  0  0  0
   -4.3695    1.0741    0.6362 C   0  0  0  0  0  0  0  0  0  0  0  0
   -5.7174    1.2662    0.5493 O   0  0  0  0  0  0  0  0  0  0  0  0
   -6.4811    1.9426    1.5276 C   0  0  0  0  0  0  0  0  0  0  0  0
   -7.9347    2.0328    1.1448 C   0  0  0  0  0  0  0  0  0  0  0  0
   -8.4979    0.6486    1.0445 C   0  0  0  0  0  0  0  0  0  0  0  0
   -9.9036    0.6228    0.6831 N   0  0  0  0  0  0  0  0  0  0  0  0
  -10.3079   -0.7910    0.8619 C   0  0  0  0  0  0  0  0  0  0  0  0
  -11.6524   -1.0829    0.2872 C   0  0  0  0  0  0  0  0  0  0  0  0
  -11.9057   -0.4129   -0.9237 O   0  0  0  0  0  0  0  0  0  0  0  0
  -10.6875   -0.1604   -1.5210 C   0  0  0  0  0  0  0  0  0  0  0  0
   -9.9805    0.9527   -0.7449 C   0  0  0  0  0  0  0  0  0  0  0  0
   -3.5752   -1.8606   -2.2552 H   0  0  0  0  0  0  0  0  0  0  0  0
   -4.5499   -0.8738   -3.3932 H   0  0  0  0  0  0  0  0  0  0  0  0
   -2.9103   -0.3554   -2.9443 H   0  0  0  0  0  0  0  0  0  0  0  0
   -1.7881   -0.2915   -1.0522 H   0  0  0  0  0  0  0  0  0  0  0  0
    1.4435   -2.4997   -0.0192 H   0  0  0  0  0  0  0  0  0  0  0  0
    3.8115   -3.0467   -0.1742 H   0  0  0  0  0  0  0  0  0  0  0  0
    6.5102   -0.6145   -0.7952 H   0  0  0  0  0  0  0  0  0  0  0  0
    9.3550   -4.1910   -1.2604 H   0  0  0  0  0  0  0  0  0  0  0  0
    7.5489   -4.7822   -0.9962 H   0  0  0  0  0  0  0  0  0  0  0  0
    7.9285   -4.2048    1.5021 H   0  0  0  0  0  0  0  0  0  0  0  0
    9.5761   -3.4402    1.0968 H   0  0  0  0  0  0  0  0  0  0  0  0
    8.6269   -0.4382    1.3024 H   0  0  0  0  0  0  0  0  0  0  0  0
   11.2158    0.5228    1.4404 H   0  0  0  0  0  0  0  0  0  0  0  0
   12.4267    2.5904    0.7817 H   0  0  0  0  0  0  0  0  0  0  0  0
    9.5578    3.2991   -2.3588 H   0  0  0  0  0  0  0  0  0  0  0  0
    8.3940    1.2002   -1.6567 H   0  0  0  0  0  0  0  0  0  0  0  0
    4.7885    1.0431   -0.3850 H   0  0  0  0  0  0  0  0  0  0  0  0
    1.4077    0.9219    2.2023 H   0  0  0  0  0  0  0  0  0  0  0  0
    0.1267    2.1033    3.9130 H   0  0  0  0  0  0  0  0  0  0  0  0
   -4.2450    2.0957    2.5441 H   0  0  0  0  0  0  0  0  0  0  0  0
   -6.0816    2.9259    1.7614 H   0  0  0  0  0  0  0  0  0  0  0  0
   -6.4223    1.2583    2.4406 H   0  0  0  0  0  0  0  0  0  0  0  0
   -8.0945    2.6326    0.2433 H   0  0  0  0  0  0  0  0  0  0  0  0
   -8.4948    2.5991    1.9539 H   0  0  0  0  0  0  0  0  0  0  0  0
   -7.8870    0.1130    0.2654 H   0  0  0  0  0  0  0  0  0  0  0  0
   -8.3089    0.1370    2.0005 H   0  0  0  0  0  0  0  0  0  0  0  0
   -9.4878   -1.3997    0.4459 H   0  0  0  0  0  0  0  0  0  0  0  0
  -10.2930   -0.9120    1.9864 H   0  0  0  0  0  0  0  0  0  0  0  0
  -11.6772   -2.1790    0.0299 H   0  0  0  0  0  0  0  0  0  0  0  0
  -12.4398   -0.9525    1.0381 H   0  0  0  0  0  0  0  0  0  0  0  0
  -10.0219   -1.0279   -1.4792 H   0  0  0  0  0  0  0  0  0  0  0  0
  -10.8743    0.1453   -2.5500 H   0  0  0  0  0  0  0  0  0  0  0  0
  -10.5228    1.8993   -0.8854 H   0  0  0  0  0  0  0  0  0  0  0  0
   -8.9666    1.0724   -1.1712 H   0  0  0  0  0  0  0  0  0  0  0  0
  1  2  1  0
  2  3  1  0
  3  4  2  0
  4  5  1  0
  5  6  2  0
  6  7  1  0
  7  8  1  0
  8  9  2  0
  9 10  1  0
 10 11  2  0
 11 12  1  0
 12 13  1  0
 13 14  2  0
 13 15  1  0
 15 16  1  0
 16 17  1  0
 15 18  1  0
 18 19  2  0
 18 20  1  0
 20 21  1  0
 21 22  2  0
 22 23  1  0
 23 24  2  0
 24 25  1  0
 24 26  1  0
 26 27  2  0
 11 28  1  0
 28 29  2  0
 29 30  1  0
  6 31  1  0
 31 32  2  0
 32 33  1  0
 33 34  2  0
 34 35  1  0
 35 36  2  0
 36 37  1  0
 37 38  1  0
 38 39  1  0
 39 40  1  0
 40 41  1  0
 41 42  1  0
 42 43  1  0
 43 44  1  0
 44 45  1  0
 45 46  1  0
 36  3  1  0
 46 41  1  0
 34  5  1  0
 29  8  1  0
 17 15  1  0
 27 21  1  0
  1 47  1  0
  1 48  1  0
  1 49  1  0
  4 50  1  0
  9 51  1  0
 10 52  1  0
 12 53  1  0
 16 54  1  0
 16 55  1  0
 17 56  1  0
 17 57  1  0
 20 58  1  0
 22 59  1  0
 23 60  1  0
 26 61  1  0
 27 62  1  0
 28 63  1  0
 31 64  1  0
 32 65  1  0
 35 66  1  0
 38 67  1  0
 38 68  1  0
 39 69  1  0
 39 70  1  0
 40 71  1  0
 40 72  1  0
 42 73  1  0
 42 74  1  0
 43 75  1  0
 43 76  1  0
 45 77  1  0
 45 78  1  0
 46 79  1  0
 46 80  1  0
M  END
$$$$
[H]O[C@]1([H])C([H])([H])C([H])([H])[C@@]([H])(n2c([H])c(-c3c([H])c([H])c(S(=O)(=O)N4C([H])([H])C([H])([H])OC([H])([H])C4([H])[H])c(F)c3[H])c3c([H])nc(N([H])C([H])([H])C([H])([H])C([H])([H])C([H])([H])[H])nc32)C([H])([H])C1([H])[H]
     RDKit          3D

 71 75  0  0  0  0  0  0  0  0999 V2000
   -7.4320   -1.5448    1.3096 C   0  0  0  0  0  0  0  0  0  0  0  0
   -7.3902   -3.0137    1.1659 C   0  0  0  0  0  0  0  0  0  0  0  0
   -6.8113   -3.5301   -0.0860 C   0  0  0  0  0  0  0  0  0  0  0  0
   -5.3877   -3.1513   -0.2950 C   0  0  0  0  0  0  0  0  0  0  0  0
   -5.0923   -1.7731   -0.4591 N   0  0  0  0  0  0  0  0  0  0  0  0
   -3.7061   -1.3802   -0.4682 C   0  0  0  0  0  0  0  0  0  0  0  0
   -2.7292   -2.2860   -0.3266 N   0  0  0  0  0  0  0  0  0  0  0  0
   -1.4249   -1.9722   -0.3259 C   0  0  0  0  0  0  0  0  0  0  0  0
   -1.0690   -0.6492   -0.4785 C   0  0  0  0  0  0  0  0  0  0  0  0
    0.1575   -0.0232   -0.5187 C   0  0  0  0  0  0  0  0  0  0  0  0
   -0.1067    1.3041   -0.6911 C   0  0  0  0  0  0  0  0  0  0  0  0
   -1.4433    1.5139   -0.7576 N   0  0  0  0  0  0  0  0  0  0  0  0
   -2.1424    2.7488   -0.9320 C   0  0  1  0  0  0  0  0  0  0  0  0
   -3.0346    2.9546    0.2705 C   0  0  0  0  0  0  0  0  0  0  0  0
   -2.6320    4.2377    0.9418 C   0  0  0  0  0  0  0  0  0  0  0  0
   -2.9187    5.3641   -0.0430 C   0  0  2  0  0  0  0  0  0  0  0  0
   -4.1997    5.1172   -0.5491 O   0  0  0  0  0  0  0  0  0  0  0  0
   -1.9271    5.2201   -1.1753 C   0  0  0  0  0  0  0  0  0  0  0  0
   -1.2225    3.9059   -1.1784 C   0  0  0  0  0  0  0  0  0  0  0  0
   -2.0639    0.3049   -0.6267 C   0  0  0  0  0  0  0  0  0  0  0  0
   -3.3305   -0.0996   -0.6151 N   0  0  0  0  0  0  0  0  0  0  0  0
    1.4969   -0.6031   -0.4039 C   0  0  0  0  0  0  0  0  0  0  0  0
    1.8010   -1.5299    0.5706 C   0  0  0  0  0  0  0  0  0  0  0  0
    3.0487   -2.0822    0.6886 C   0  0  0  0  0  0  0  0  0  0  0  0
    4.1066   -1.7391   -0.1799 C   0  0  0  0  0  0  0  0  0  0  0  0
    3.7894   -0.8224   -1.1390 C   0  0  0  0  0  0  0  0  0  0  0  0
    4.7355   -0.4672   -2.0523 F   0  0  0  0  0  0  0  0  0  0  0  0
    2.5158   -0.2568   -1.2604 C   0  0  0  0  0  0  0  0  0  0  0  0
    5.6803   -2.4496    0.0729 S   0  0  0  0  0  0  0  0  0  0  0  0
    5.5607   -3.7038    0.9215 O   0  0  0  0  0  0  0  0  0  0  0  0
    6.2387   -2.9506   -1.2672 O   0  0  0  0  0  0  0  0  0  0  0  0
    6.8211   -1.3866    0.7046 N   0  0  0  0  0  0  0  0  0  0  0  0
    7.1605   -0.2603   -0.0549 C   0  0  0  0  0  0  0  0  0  0  0  0
    8.3990    0.3742    0.6114 C   0  0  0  0  0  0  0  0  0  0  0  0
    9.4850   -0.4631    0.5336 O   0  0  0  0  0  0  0  0  0  0  0  0
    9.2420   -1.7666    0.8916 C   0  0  0  0  0  0  0  0  0  0  0  0
    7.8726   -1.9883    1.4665 C   0  0  0  0  0  0  0  0  0  0  0  0
   -6.4556   -1.1215    1.6412 H   0  0  0  0  0  0  0  0  0  0  0  0
   -7.8688   -1.0805    0.4240 H   0  0  0  0  0  0  0  0  0  0  0  0
   -8.1324   -1.2907    2.1559 H   0  0  0  0  0  0  0  0  0  0  0  0
   -6.8058   -3.4952    2.0176 H   0  0  0  0  0  0  0  0  0  0  0  0
   -8.4486   -3.3887    1.2453 H   0  0  0  0  0  0  0  0  0  0  0  0
   -6.9463   -4.6568   -0.1466 H   0  0  0  0  0  0  0  0  0  0  0  0
   -7.3790   -3.1463   -0.9800 H   0  0  0  0  0  0  0  0  0  0  0  0
   -4.7242   -3.5899    0.5286 H   0  0  0  0  0  0  0  0  0  0  0  0
   -5.0450   -3.7553   -1.1987 H   0  0  0  0  0  0  0  0  0  0  0  0
   -5.7643   -1.0189   -0.5974 H   0  0  0  0  0  0  0  0  0  0  0  0
   -0.6513   -2.7486   -0.2078 H   0  0  0  0  0  0  0  0  0  0  0  0
    0.6172    2.1156   -0.7696 H   0  0  0  0  0  0  0  0  0  0  0  0
   -2.7655    2.6357   -1.8618 H   0  0  0  0  0  0  0  0  0  0  0  0
   -2.9062    2.1374    1.0263 H   0  0  0  0  0  0  0  0  0  0  0  0
   -4.0800    2.9337   -0.0509 H   0  0  0  0  0  0  0  0  0  0  0  0
   -1.5512    4.1660    1.1789 H   0  0  0  0  0  0  0  0  0  0  0  0
   -3.2683    4.3507    1.8479 H   0  0  0  0  0  0  0  0  0  0  0  0
   -2.8401    6.3095    0.4984 H   0  0  0  0  0  0  0  0  0  0  0  0
   -4.3993    5.7673   -1.2601 H   0  0  0  0  0  0  0  0  0  0  0  0
   -1.1536    6.0145   -1.0239 H   0  0  0  0  0  0  0  0  0  0  0  0
   -2.4270    5.3602   -2.1556 H   0  0  0  0  0  0  0  0  0  0  0  0
   -0.3615    3.9353   -0.4648 H   0  0  0  0  0  0  0  0  0  0  0  0
   -0.7682    3.7720   -2.1886 H   0  0  0  0  0  0  0  0  0  0  0  0
    0.9877   -1.8077    1.2577 H   0  0  0  0  0  0  0  0  0  0  0  0
    3.2847   -2.8128    1.4583 H   0  0  0  0  0  0  0  0  0  0  0  0
    2.3154    0.4701   -2.0410 H   0  0  0  0  0  0  0  0  0  0  0  0
    6.4025    0.5354   -0.0003 H   0  0  0  0  0  0  0  0  0  0  0  0
    7.3993   -0.4515   -1.1313 H   0  0  0  0  0  0  0  0  0  0  0  0
    8.0999    0.5993    1.6437 H   0  0  0  0  0  0  0  0  0  0  0  0
    8.6142    1.3130    0.0725 H   0  0  0  0  0  0  0  0  0  0  0  0
    9.4256   -2.4118    0.0023 H   0  0  0  0  0  0  0  0  0  0  0  0
    9.9732   -2.1394    1.6664 H   0  0  0  0  0  0  0  0  0  0  0  0
    7.6985   -3.0927    1.5163 H   0  0  0  0  0  0  0  0  0  0  0  0
    7.8765   -1.5599    2.4977 H   0  0  0  0  0  0  0  0  0  0  0  0
  1  2  1  0
  2  3  1  0
  3  4  1  0
  4  5  1  0
  5  6  1  0
  6  7  2  0
  7  8  1  0
  8  9  2  0
  9 10  1  0
 10 11  2  0
 11 12  1  0
 12 13  1  0
 13 14  1  0
 14 15  1  0
 15 16  1  0
 16 17  1  0
 16 18  1  0
 18 19  1  0
 12 20  1  0
 20 21  2  0
 10 22  1  0
 22 23  2  0
 23 24  1  0
 24 25  2  0
 25 26  1  0
 26 27  1  0
 26 28  2  0
 25 29  1  0
 29 30  2  0
 29 31  2  0
 29 32  1  0
 32 33  1  0
 33 34  1  0
 34 35  1  0
 35 36  1  0
 36 37  1  0
 21  6  1  0
 28 22  1  0
 37 32  1  0
 20  9  1  0
 19 13  1  0
  1 38  1  0
  1 39  1  0
  1 40  1  0
  2 41  1  0
  2 42  1  0
  3 43  1  0
  3 44  1  0
  4 45  1  0
  4 46  1  0
  5 47  1  0
  8 48  1  0
 11 49  1  0
 13 50  1  6
 14 51  1  0
 14 52  1  0
 15 53  1  0
 15 54  1  0
 16 55  1  1
 17 56  1  0
 18 57  1  0
 18 58  1  0
 19 59  1  0
 19 60  1  0
 23 61  1  0
 24 62  1  0
 28 63  1  0
 33 64  1  0
 33 65  1  0
 34 66  1  0
 34 67  1  0
 36 68  1  0
 36 69  1  0
 37 70  1  0
 37 71  1  0
M  END
$$$$
[H]OC1([H])C([H])([H])C([H])([H])C([H])(n2c([H])c(-c3c([H])c([H])c(S(=O)(=O)N4C([H])([H])C([H])([H])OC([H])([H])C4([H])[H])c([H])c3[H])c3c([H])nc(N([H])C([H])([H])C([H])([H])C([H])([H])C([H])([H])[H])nc32)C([H])([H])C1([H])[H]
     RDKit          3D

 71 75  0  0  0  0  0  0  0  0999 V2000
   -8.2498   -5.0247   -0.9177 C   0  0  0  0  0  0  0  0  0  0  0  0
   -6.7930   -4.6385   -0.7769 C   0  0  0  0  0  0  0  0  0  0  0  0
   -6.6103   -3.1368   -0.6525 C   0  0  0  0  0  0  0  0  0  0  0  0
   -5.1268   -2.8846   -0.5194 C   0  0  0  0  0  0  0  0  0  0  0  0
   -4.8338   -1.4880   -0.3943 N   0  0  0  0  0  0  0  0  0  0  0  0
   -3.4606   -1.0782   -0.2563 C   0  0  0  0  0  0  0  0  0  0  0  0
   -2.4785   -1.9908   -0.2458 N   0  0  0  0  0  0  0  0  0  0  0  0
   -1.1837   -1.6844   -0.1215 C   0  0  0  0  0  0  0  0  0  0  0  0
   -0.8398   -0.3451    0.0036 C   0  0  0  0  0  0  0  0  0  0  0  0
    0.3397    0.3355    0.1472 C   0  0  0  0  0  0  0  0  0  0  0  0
    0.0235    1.6855    0.2221 C   0  0  0  0  0  0  0  0  0  0  0  0
   -1.3086    1.8408    0.1280 N   0  0  0  0  0  0  0  0  0  0  0  0
   -2.0617    3.0770    0.1597 C   0  0  0  0  0  0  0  0  0  0  0  0
   -1.1598    4.2235    0.5160 C   0  0  0  0  0  0  0  0  0  0  0  0
   -1.9199    5.5058    0.1936 C   0  0  0  0  0  0  0  0  0  0  0  0
   -3.3223    5.4883    0.6998 C   0  0  0  0  0  0  0  0  0  0  0  0
   -3.6030    6.6817    1.3755 O   0  0  0  0  0  0  0  0  0  0  0  0
   -3.6258    4.3588    1.6392 C   0  0  0  0  0  0  0  0  0  0  0  0
   -3.2432    3.0105    1.0996 C   0  0  0  0  0  0  0  0  0  0  0  0
   -1.8613    0.6042   -0.0072 C   0  0  0  0  0  0  0  0  0  0  0  0
   -3.1334    0.2157   -0.1357 N   0  0  0  0  0  0  0  0  0  0  0  0
    1.6758   -0.2665    0.2046 C   0  0  0  0  0  0  0  0  0  0  0  0
    2.5933    0.1156    1.1652 C   0  0  0  0  0  0  0  0  0  0  0  0
    3.8531   -0.4315    1.2368 C   0  0  0  0  0  0  0  0  0  0  0  0
    4.1742   -1.3987    0.2913 C   0  0  0  0  0  0  0  0  0  0  0  0
    3.2742   -1.7837   -0.6627 C   0  0  0  0  0  0  0  0  0  0  0  0
    2.0217   -1.2294   -0.7219 C   0  0  0  0  0  0  0  0  0  0  0  0
    5.7830   -2.1306    0.3347 S   0  0  0  0  0  0  0  0  0  0  0  0
    6.3069   -1.9764    1.7499 O   0  0  0  0  0  0  0  0  0  0  0  0
    5.7071   -3.5770    0.0287 O   0  0  0  0  0  0  0  0  0  0  0  0
    6.8055   -1.2667   -0.7182 N   0  0  0  0  0  0  0  0  0  0  0  0
    6.9907    0.1021   -0.3812 C   0  0  0  0  0  0  0  0  0  0  0  0
    8.3577    0.4046    0.2103 C   0  0  0  0  0  0  0  0  0  0  0  0
    9.3755   -0.0929   -0.5985 O   0  0  0  0  0  0  0  0  0  0  0  0
    9.2651   -1.4633   -0.6279 C   0  0  0  0  0  0  0  0  0  0  0  0
    7.9651   -1.9792   -1.1474 C   0  0  0  0  0  0  0  0  0  0  0  0
   -8.8929   -4.1887   -0.6007 H   0  0  0  0  0  0  0  0  0  0  0  0
   -8.5128   -5.2125   -1.9974 H   0  0  0  0  0  0  0  0  0  0  0  0
   -8.4500   -5.9725   -0.3930 H   0  0  0  0  0  0  0  0  0  0  0  0
   -6.2104   -5.0491   -1.6245 H   0  0  0  0  0  0  0  0  0  0  0  0
   -6.3648   -5.0831    0.1629 H   0  0  0  0  0  0  0  0  0  0  0  0
   -7.0117   -2.5966   -1.5240 H   0  0  0  0  0  0  0  0  0  0  0  0
   -7.0879   -2.7614    0.2637 H   0  0  0  0  0  0  0  0  0  0  0  0
   -4.5671   -3.2755   -1.4064 H   0  0  0  0  0  0  0  0  0  0  0  0
   -4.7706   -3.4906    0.3514 H   0  0  0  0  0  0  0  0  0  0  0  0
   -5.5496   -0.7421   -0.3960 H   0  0  0  0  0  0  0  0  0  0  0  0
   -0.4075   -2.4633   -0.1159 H   0  0  0  0  0  0  0  0  0  0  0  0
    0.7467    2.4733    0.3376 H   0  0  0  0  0  0  0  0  0  0  0  0
   -2.4514    3.2482   -0.8632 H   0  0  0  0  0  0  0  0  0  0  0  0
   -0.2764    4.2010   -0.1412 H   0  0  0  0  0  0  0  0  0  0  0  0
   -0.9113    4.1526    1.5979 H   0  0  0  0  0  0  0  0  0  0  0  0
   -1.3523    6.3280    0.6599 H   0  0  0  0  0  0  0  0  0  0  0  0
   -1.9076    5.5799   -0.9291 H   0  0  0  0  0  0  0  0  0  0  0  0
   -4.0308    5.4385   -0.1506 H   0  0  0  0  0  0  0  0  0  0  0  0
   -3.7263    7.4457    0.7633 H   0  0  0  0  0  0  0  0  0  0  0  0
   -3.1783    4.5667    2.6178 H   0  0  0  0  0  0  0  0  0  0  0  0
   -4.7456    4.3503    1.7748 H   0  0  0  0  0  0  0  0  0  0  0  0
   -2.9342    2.3818    1.9622 H   0  0  0  0  0  0  0  0  0  0  0  0
   -4.1200    2.4843    0.6426 H   0  0  0  0  0  0  0  0  0  0  0  0
    2.3148    0.8690    1.8854 H   0  0  0  0  0  0  0  0  0  0  0  0
    4.5727   -0.1196    2.0091 H   0  0  0  0  0  0  0  0  0  0  0  0
    3.5762   -2.5454   -1.3794 H   0  0  0  0  0  0  0  0  0  0  0  0
    1.3130   -1.5520   -1.4991 H   0  0  0  0  0  0  0  0  0  0  0  0
    6.2555    0.3807    0.3986 H   0  0  0  0  0  0  0  0  0  0  0  0
    6.7726    0.7956   -1.2402 H   0  0  0  0  0  0  0  0  0  0  0  0
    8.4634    1.5094    0.2288 H   0  0  0  0  0  0  0  0  0  0  0  0
    8.3728   -0.0368    1.2288 H   0  0  0  0  0  0  0  0  0  0  0  0
   10.0691   -1.8449   -1.3159 H   0  0  0  0  0  0  0  0  0  0  0  0
    9.4704   -1.9325    0.3664 H   0  0  0  0  0  0  0  0  0  0  0  0
    7.8580   -3.0345   -0.7574 H   0  0  0  0  0  0  0  0  0  0  0  0
    7.9775   -2.0866   -2.2647 H   0  0  0  0  0  0  0  0  0  0  0  0
  1  2  1  0
  2  3  1  0
  3  4  1  0
  4  5  1  0
  5  6  1  0
  6  7  2  0
  7  8  1  0
  8  9  2  0
  9 10  1  0
 10 11  2  0
 11 12  1  0
 12 13  1  0
 13 14  1  0
 14 15  1  0
 15 16  1  0
 16 17  1  0
 16 18  1  0
 18 19  1  0
 12 20  1  0
 20 21  2  0
 10 22  1  0
 22 23  2  0
 23 24  1  0
 24 25  2  0
 25 26  1  0
 26 27  2  0
 25 28  1  0
 28 29  2  0
 28 30  2  0
 28 31  1  0
 31 32  1  0
 32 33  1  0
 33 34  1  0
 34 35  1  0
 35 36  1  0
 21  6  1  0
 27 22  1  0
 36 31  1  0
 20  9  1  0
 19 13  1  0
  1 37  1  0
  1 38  1  0
  1 39  1  0
  2 40  1  0
  2 41  1  0
  3 42  1  0
  3 43  1  0
  4 44  1  0
  4 45  1  0
  5 46  1  0
  8 47  1  0
 11 48  1  0
 13 49  1  0
 14 50  1  0
 14 51  1  0
 15 52  1  0
 15 53  1  0
 16 54  1  0
 17 55  1  0
 18 56  1  0
 18 57  1  0
 19 58  1  0
 19 59  1  0
 23 60  1  0
 24 61  1  0
 26 62  1  0
 27 63  1  0
 32 64  1  0
 32 65  1  0
 33 66  1  0
 33 67  1  0
 35 68  1  0
 35 69  1  0
 36 70  1  0
 36 71  1  0
M  END
$$$$
[H]c1nc(N([H])[H])c2c(-c3c([H])c([H])c(N([H])C(=O)c4c([H])c([H])c([H])n(-c5c([H])c([H])c(F)c([H])c5[H])c4=O)c([H])c3[H])c([H])c(C3([H])C([H])([H])C3([H])[H])n2n1
     RDKit          3D

 57 62  0  0  0  0  0  0  0  0999 V2000
   -3.9235   -2.4300    2.2402 N   0  0  0  0  0  0  0  0  0  0  0  0
   -5.0758   -1.6444    1.9734 C   0  0  0  0  0  0  0  0  0  0  0  0
   -6.2321   -2.0589    2.5275 N   0  0  0  0  0  0  0  0  0  0  0  0
   -7.3577   -1.3328    2.3182 C   0  0  0  0  0  0  0  0  0  0  0  0
   -7.3404   -0.2127    1.5725 N   0  0  0  0  0  0  0  0  0  0  0  0
   -6.2123    0.1845    1.0366 N   0  0  0  0  0  0  0  0  0  0  0  0
   -5.9803    1.2747    0.2668 C   0  0  0  0  0  0  0  0  0  0  0  0
   -4.6400    1.2608   -0.0436 C   0  0  0  0  0  0  0  0  0  0  0  0
   -4.0366    0.1454    0.5420 C   0  0  0  0  0  0  0  0  0  0  0  0
   -2.6137   -0.2281    0.4055 C   0  0  0  0  0  0  0  0  0  0  0  0
   -1.6970    0.6844    0.8726 C   0  0  0  0  0  0  0  0  0  0  0  0
   -0.3514    0.4595    0.7748 C   0  0  0  0  0  0  0  0  0  0  0  0
    0.1290   -0.7165    0.1906 C   0  0  0  0  0  0  0  0  0  0  0  0
    1.5323   -0.8877    0.1244 N   0  0  0  0  0  0  0  0  0  0  0  0
    2.2415   -1.9530   -0.4551 C   0  0  0  0  0  0  0  0  0  0  0  0
    1.6826   -2.9637   -1.0133 O   0  0  0  0  0  0  0  0  0  0  0  0
    3.7170   -1.9666   -0.4476 C   0  0  0  0  0  0  0  0  0  0  0  0
    4.3657   -3.2069   -0.3956 C   0  0  0  0  0  0  0  0  0  0  0  0
    5.7290   -3.2499   -0.3500 C   0  0  0  0  0  0  0  0  0  0  0  0
    6.4472   -2.0794   -0.3564 C   0  0  0  0  0  0  0  0  0  0  0  0
    5.8136   -0.8961   -0.4082 N   0  0  0  0  0  0  0  0  0  0  0  0
    6.5776    0.3030   -0.4279 C   0  0  0  0  0  0  0  0  0  0  0  0
    6.4628    1.2204   -1.4278 C   0  0  0  0  0  0  0  0  0  0  0  0
    7.2076    2.3895   -1.4542 C   0  0  0  0  0  0  0  0  0  0  0  0
    8.0946    2.5998   -0.4035 C   0  0  0  0  0  0  0  0  0  0  0  0
    8.8292    3.7324   -0.4164 F   0  0  0  0  0  0  0  0  0  0  0  0
    8.2313    1.6973    0.6147 C   0  0  0  0  0  0  0  0  0  0  0  0
    7.4616    0.5415    0.5936 C   0  0  0  0  0  0  0  0  0  0  0  0
    4.4529   -0.8385   -0.4537 C   0  0  0  0  0  0  0  0  0  0  0  0
    3.9831    0.3231   -0.5023 O   0  0  0  0  0  0  0  0  0  0  0  0
   -0.8159   -1.6090   -0.2672 C   0  0  0  0  0  0  0  0  0  0  0  0
   -2.1824   -1.3701   -0.1628 C   0  0  0  0  0  0  0  0  0  0  0  0
   -5.0461   -0.5032    1.2093 C   0  0  0  0  0  0  0  0  0  0  0  0
   -6.9185    2.3265   -0.1878 C   0  0  0  0  0  0  0  0  0  0  0  0
   -6.8475    2.8546   -1.5732 C   0  0  0  0  0  0  0  0  0  0  0  0
   -6.2737    3.6819   -0.4815 C   0  0  0  0  0  0  0  0  0  0  0  0
   -3.8174   -3.3945    1.8304 H   0  0  0  0  0  0  0  0  0  0  0  0
   -3.1332   -2.1081    2.8448 H   0  0  0  0  0  0  0  0  0  0  0  0
   -8.3115   -1.6384    2.7472 H   0  0  0  0  0  0  0  0  0  0  0  0
   -4.0816    1.9769   -0.6460 H   0  0  0  0  0  0  0  0  0  0  0  0
   -2.0425    1.6247    1.3401 H   0  0  0  0  0  0  0  0  0  0  0  0
    0.3600    1.2109    1.1595 H   0  0  0  0  0  0  0  0  0  0  0  0
    2.0888   -0.1162    0.6085 H   0  0  0  0  0  0  0  0  0  0  0  0
    3.7258   -4.0779   -0.3978 H   0  0  0  0  0  0  0  0  0  0  0  0
    6.2250   -4.2231   -0.3080 H   0  0  0  0  0  0  0  0  0  0  0  0
    7.5314   -2.0949   -0.3169 H   0  0  0  0  0  0  0  0  0  0  0  0
    5.7526    1.0007   -2.2230 H   0  0  0  0  0  0  0  0  0  0  0  0
    7.0773    3.0715   -2.2562 H   0  0  0  0  0  0  0  0  0  0  0  0
    8.9248    1.8857    1.4184 H   0  0  0  0  0  0  0  0  0  0  0  0
    7.5665   -0.1765    1.3972 H   0  0  0  0  0  0  0  0  0  0  0  0
   -0.4989   -2.5310   -0.7238 H   0  0  0  0  0  0  0  0  0  0  0  0
   -2.8806   -2.1062   -0.5505 H   0  0  0  0  0  0  0  0  0  0  0  0
   -7.9230    2.3570    0.3048 H   0  0  0  0  0  0  0  0  0  0  0  0
   -6.2087    2.3098   -2.2825 H   0  0  0  0  0  0  0  0  0  0  0  0
   -7.8226    3.1409   -2.0278 H   0  0  0  0  0  0  0  0  0  0  0  0
   -6.7803    4.5988   -0.1365 H   0  0  0  0  0  0  0  0  0  0  0  0
   -5.1654    3.7580   -0.4466 H   0  0  0  0  0  0  0  0  0  0  0  0
  1  2  1  0
  2  3  2  0
  3  4  1  0
  4  5  2  0
  5  6  1  0
  6  7  1  0
  7  8  2  0
  8  9  1  0
  9 10  1  0
 10 11  2  0
 11 12  1  0
 12 13  2  0
 13 14  1  0
 14 15  1  0
 15 16  2  0
 15 17  1  0
 17 18  2  0
 18 19  1  0
 19 20  2  0
 20 21  1  0
 21 22  1  0
 22 23  2  0
 23 24  1  0
 24 25  2  0
 25 26  1  0
 25 27  1  0
 27 28  2  0
 21 29  1  0
 29 30  2  0
 13 31  1  0
 31 32  2  0
  9 33  2  0
  7 34  1  0
 34 35  1  0
 35 36  1  0
 33  2  1  0
 36 34  1  0
 33  6  1  0
 32 10  1  0
 29 17  1  0
 28 22  1  0
  1 37  1  0
  1 38  1  0
  4 39  1  0
  8 40  1  0
 11 41  1  0
 12 42  1  0
 14 43  1  0
 18 44  1  0
 19 45  1  0
 20 46  1  0
 23 47  1  0
 24 48  1  0
 27 49  1  0
 28 50  1  0
 31 51  1  0
 32 52  1  0
 34 53  1  0
 35 54  1  0
 35 55  1  0
 36 56  1  0
 36 57  1  0
M  END
$$$$
[H]OC1([H])C([H])([H])C([H])([H])C([H])(n2c([H])c(-c3c([H])c([H])c(S(=O)(=O)C([H])([H])[H])c([H])c3[H])c3c([H])nc(N([H])C([H])([H])C([H])([H])C([H])([H])C([H])([H])[H])nc32)C([H])([H])C1([H])[H]
     RDKit          3D

 61 64  0  0  0  0  0  0  0  0999 V2000
    7.6462    1.6976    0.6063 C   0  0  0  0  0  0  0  0  0  0  0  0
    6.1414    1.5725    0.8580 C   0  0  0  0  0  0  0  0  0  0  0  0
    5.4666    2.5224   -0.0932 C   0  0  0  0  0  0  0  0  0  0  0  0
    3.9773    2.5186    0.0289 C   0  0  0  0  0  0  0  0  0  0  0  0
    3.3918    1.2377   -0.2309 N   0  0  0  0  0  0  0  0  0  0  0  0
    2.0014    1.0086   -0.1712 C   0  0  0  0  0  0  0  0  0  0  0  0
    1.2075    2.0658    0.1487 N   0  0  0  0  0  0  0  0  0  0  0  0
   -0.1102    1.9115    0.2205 C   0  0  0  0  0  0  0  0  0  0  0  0
   -0.6533    0.6707   -0.0330 C   0  0  0  0  0  0  0  0  0  0  0  0
   -1.9164    0.1638   -0.0521 C   0  0  0  0  0  0  0  0  0  0  0  0
   -1.8368   -1.1657   -0.3798 C   0  0  0  0  0  0  0  0  0  0  0  0
   -0.5515   -1.5114   -0.5682 N   0  0  0  0  0  0  0  0  0  0  0  0
   -0.1495   -2.8559   -0.9257 C   0  0  0  0  0  0  0  0  0  0  0  0
   -0.6691   -3.7779    0.1381 C   0  0  0  0  0  0  0  0  0  0  0  0
   -0.2863   -5.2033   -0.0371 C   0  0  0  0  0  0  0  0  0  0  0  0
    1.1320   -5.4141   -0.4771 C   0  0  0  0  0  0  0  0  0  0  0  0
    1.1917   -6.7027   -1.0502 O   0  0  0  0  0  0  0  0  0  0  0  0
    1.5802   -4.4476   -1.5185 C   0  0  0  0  0  0  0  0  0  0  0  0
    1.3362   -3.0194   -1.0111 C   0  0  0  0  0  0  0  0  0  0  0  0
    0.1656   -0.4160   -0.3622 C   0  0  0  0  0  0  0  0  0  0  0  0
    1.4720   -0.2085   -0.4202 N   0  0  0  0  0  0  0  0  0  0  0  0
   -3.1289    0.9554    0.2451 C   0  0  0  0  0  0  0  0  0  0  0  0
   -4.2032    0.8612   -0.5978 C   0  0  0  0  0  0  0  0  0  0  0  0
   -5.3398    1.5867   -0.3325 C   0  0  0  0  0  0  0  0  0  0  0  0
   -5.4071    2.4097    0.7769 C   0  0  0  0  0  0  0  0  0  0  0  0
   -4.3029    2.4841    1.6121 C   0  0  0  0  0  0  0  0  0  0  0  0
   -3.1726    1.7581    1.3421 C   0  0  0  0  0  0  0  0  0  0  0  0
   -6.8576    3.3153    1.0869 S   0  0  0  0  0  0  0  0  0  0  0  0
   -6.6926    4.8879    0.2587 C   0  0  0  0  0  0  0  0  0  0  0  0
   -7.0583    3.4755    2.5480 O   0  0  0  0  0  0  0  0  0  0  0  0
   -8.0099    2.5392    0.4783 O   0  0  0  0  0  0  0  0  0  0  0  0
    7.9970    0.9898   -0.1592 H   0  0  0  0  0  0  0  0  0  0  0  0
    7.8574    2.7195    0.2266 H   0  0  0  0  0  0  0  0  0  0  0  0
    8.2169    1.6123    1.5643 H   0  0  0  0  0  0  0  0  0  0  0  0
    5.8447    0.5303    0.7405 H   0  0  0  0  0  0  0  0  0  0  0  0
    5.9853    1.8753    1.9053 H   0  0  0  0  0  0  0  0  0  0  0  0
    5.8198    3.5534    0.1839 H   0  0  0  0  0  0  0  0  0  0  0  0
    5.7850    2.3550   -1.1278 H   0  0  0  0  0  0  0  0  0  0  0  0
    3.6577    2.8347    1.0418 H   0  0  0  0  0  0  0  0  0  0  0  0
    3.5871    3.3016   -0.6659 H   0  0  0  0  0  0  0  0  0  0  0  0
    4.0173    0.4385   -0.4748 H   0  0  0  0  0  0  0  0  0  0  0  0
   -0.7471    2.7439    0.4706 H   0  0  0  0  0  0  0  0  0  0  0  0
   -2.7282   -1.7939   -0.4588 H   0  0  0  0  0  0  0  0  0  0  0  0
   -0.5838   -3.1830   -1.8933 H   0  0  0  0  0  0  0  0  0  0  0  0
   -0.4270   -3.3940    1.1706 H   0  0  0  0  0  0  0  0  0  0  0  0
   -1.7905   -3.7255    0.0872 H   0  0  0  0  0  0  0  0  0  0  0  0
   -0.3837   -5.7065    0.9693 H   0  0  0  0  0  0  0  0  0  0  0  0
   -0.9960   -5.7653   -0.7015 H   0  0  0  0  0  0  0  0  0  0  0  0
    1.7991   -5.3793    0.4065 H   0  0  0  0  0  0  0  0  0  0  0  0
    0.4717   -6.7517   -1.7339 H   0  0  0  0  0  0  0  0  0  0  0  0
    0.9477   -4.5499   -2.4267 H   0  0  0  0  0  0  0  0  0  0  0  0
    2.6378   -4.6154   -1.7451 H   0  0  0  0  0  0  0  0  0  0  0  0
    1.8542   -2.9202   -0.0382 H   0  0  0  0  0  0  0  0  0  0  0  0
    1.7943   -2.3749   -1.8071 H   0  0  0  0  0  0  0  0  0  0  0  0
   -4.1819    0.2138   -1.4915 H   0  0  0  0  0  0  0  0  0  0  0  0
   -6.1939    1.5002   -1.0190 H   0  0  0  0  0  0  0  0  0  0  0  0
   -4.3219    3.1271    2.5012 H   0  0  0  0  0  0  0  0  0  0  0  0
   -2.3047    1.8252    2.0174 H   0  0  0  0  0  0  0  0  0  0  0  0
   -6.3684    5.6125    1.0528 H   0  0  0  0  0  0  0  0  0  0  0  0
   -5.9155    4.8486   -0.5317 H   0  0  0  0  0  0  0  0  0  0  0  0
   -7.6943    5.1578   -0.1511 H   0  0  0  0  0  0  0  0  0  0  0  0
  1  2  1  0
  2  3  1  0
  3  4  1  0
  4  5  1  0
  5  6  1  0
  6  7  2  0
  7  8  1  0
  8  9  2  0
  9 10  1  0
 10 11  2  0
 11 12  1  0
 12 13  1  0
 13 14  1  0
 14 15  1  0
 15 16  1  0
 16 17  1  0
 16 18  1  0
 18 19  1  0
 12 20  1  0
 20 21  2  0
 10 22  1  0
 22 23  2  0
 23 24  1  0
 24 25  2  0
 25 26  1  0
 26 27  2  0
 25 28  1  0
 28 29  1  0
 28 30  2  0
 28 31  2  0
 21  6  1  0
 27 22  1  0
 20  9  1  0
 19 13  1  0
  1 32  1  0
  1 33  1  0
  1 34  1  0
  2 35  1  0
  2 36  1  0
  3 37  1  0
  3 38  1  0
  4 39  1  0
  4 40  1  0
  5 41  1  0
  8 42  1  0
 11 43  1  0
 13 44  1  0
 14 45  1  0
 14 46  1  0
 15 47  1  0
 15 48  1  0
 16 49  1  0
 17 50  1  0
 18 51  1  0
 18 52  1  0
 19 53  1  0
 19 54  1  0
 23 55  1  0
 24 56  1  0
 26 57  1  0
 27 58  1  0
 29 59  1  0
 29 60  1  0
 29 61  1  0
M  END
$$$$
[H]c1nc2c([H])c(OC([H])([H])[H])c(OC([H])([H])[H])c([H])c2c(Oc2c([H])c([H])c(N([H])C(=O)N([H])c3c([H])c([H])c(F)c([H])c3F)c([H])c2F)c1[H]
     RDKit          3D

 52 55  0  0  0  0  0  0  0  0999 V2000
    8.9311    0.7336    0.4102 C   0  0  0  0  0  0  0  0  0  0  0  0
    8.1046   -0.3608    0.0633 O   0  0  0  0  0  0  0  0  0  0  0  0
    6.7328   -0.0978   -0.0753 C   0  0  0  0  0  0  0  0  0  0  0  0
    6.2080    1.1629    0.1155 C   0  0  0  0  0  0  0  0  0  0  0  0
    4.8592    1.4066   -0.0239 C   0  0  0  0  0  0  0  0  0  0  0  0
    4.3575    2.6535    0.1673 N   0  0  0  0  0  0  0  0  0  0  0  0
    3.0427    2.8903    0.0309 C   0  0  0  0  0  0  0  0  0  0  0  0
    2.1487    1.8888   -0.3064 C   0  0  0  0  0  0  0  0  0  0  0  0
    2.6005    0.6167   -0.5091 C   0  0  0  0  0  0  0  0  0  0  0  0
    1.8263   -0.4745   -0.8446 O   0  0  0  0  0  0  0  0  0  0  0  0
    0.4507   -0.3445   -0.9275 C   0  0  0  0  0  0  0  0  0  0  0  0
   -0.2043   -0.5174   -2.1510 C   0  0  0  0  0  0  0  0  0  0  0  0
   -1.5561   -0.3994   -2.2664 C   0  0  0  0  0  0  0  0  0  0  0  0
   -2.3826   -0.0966   -1.1654 C   0  0  0  0  0  0  0  0  0  0  0  0
   -3.7385    0.0306   -1.3572 N   0  0  0  0  0  0  0  0  0  0  0  0
   -4.7312   -0.0307   -0.3382 C   0  0  0  0  0  0  0  0  0  0  0  0
   -4.4481   -0.2191    0.8596 O   0  0  0  0  0  0  0  0  0  0  0  0
   -6.0819    0.1300   -0.7164 N   0  0  0  0  0  0  0  0  0  0  0  0
   -7.1904    0.1035    0.1182 C   0  0  0  0  0  0  0  0  0  0  0  0
   -7.1632   -0.0851    1.4620 C   0  0  0  0  0  0  0  0  0  0  0  0
   -8.3423   -0.0952    2.2185 C   0  0  0  0  0  0  0  0  0  0  0  0
   -9.5636    0.0841    1.6348 C   0  0  0  0  0  0  0  0  0  0  0  0
  -10.7105    0.0776    2.3478 F   0  0  0  0  0  0  0  0  0  0  0  0
   -9.5650    0.2746    0.2630 C   0  0  0  0  0  0  0  0  0  0  0  0
   -8.4313    0.2876   -0.4888 C   0  0  0  0  0  0  0  0  0  0  0  0
   -8.5115    0.4796   -1.8258 F   0  0  0  0  0  0  0  0  0  0  0  0
   -1.7363    0.0698    0.0197 C   0  0  0  0  0  0  0  0  0  0  0  0
   -0.3445   -0.0508    0.1464 C   0  0  0  0  0  0  0  0  0  0  0  0
    0.2206    0.1039    1.3761 F   0  0  0  0  0  0  0  0  0  0  0  0
    3.9800    0.4088   -0.3579 C   0  0  0  0  0  0  0  0  0  0  0  0
    4.5195   -0.8607   -0.5485 C   0  0  0  0  0  0  0  0  0  0  0  0
    5.8624   -1.1224   -0.4137 C   0  0  0  0  0  0  0  0  0  0  0  0
    6.3987   -2.3851   -0.6033 O   0  0  0  0  0  0  0  0  0  0  0  0
    5.6083   -3.5065   -0.9511 C   0  0  0  0  0  0  0  0  0  0  0  0
    9.9868    0.3441    0.3543 H   0  0  0  0  0  0  0  0  0  0  0  0
    8.7216    1.0273    1.4573 H   0  0  0  0  0  0  0  0  0  0  0  0
    8.7501    1.5485   -0.3133 H   0  0  0  0  0  0  0  0  0  0  0  0
    6.8844    1.9883    0.3846 H   0  0  0  0  0  0  0  0  0  0  0  0
    2.6521    3.8771    0.1831 H   0  0  0  0  0  0  0  0  0  0  0  0
    1.0850    2.1193   -0.4258 H   0  0  0  0  0  0  0  0  0  0  0  0
    0.4500   -0.7512   -2.9927 H   0  0  0  0  0  0  0  0  0  0  0  0
   -2.0197   -0.5417   -3.2334 H   0  0  0  0  0  0  0  0  0  0  0  0
   -4.0869    0.1909   -2.3500 H   0  0  0  0  0  0  0  0  0  0  0  0
   -6.2387    0.2869   -1.7607 H   0  0  0  0  0  0  0  0  0  0  0  0
   -6.2646   -0.2363    2.0293 H   0  0  0  0  0  0  0  0  0  0  0  0
   -8.2845   -0.2479    3.2855 H   0  0  0  0  0  0  0  0  0  0  0  0
  -10.5576    0.4167   -0.1855 H   0  0  0  0  0  0  0  0  0  0  0  0
   -2.2643    0.3251    0.9535 H   0  0  0  0  0  0  0  0  0  0  0  0
    3.8198   -1.6590   -0.8150 H   0  0  0  0  0  0  0  0  0  0  0  0
    6.2519   -4.3119   -1.4039 H   0  0  0  0  0  0  0  0  0  0  0  0
    4.8135   -3.2050   -1.6945 H   0  0  0  0  0  0  0  0  0  0  0  0
    5.1506   -3.9270   -0.0315 H   0  0  0  0  0  0  0  0  0  0  0  0
  1  2  1  0
  2  3  1  0
  3  4  2  0
  4  5  1  0
  5  6  2  0
  6  7  1  0
  7  8  2  0
  8  9  1  0
  9 10  1  0
 10 11  1  0
 11 12  2  0
 12 13  1  0
 13 14  2  0
 14 15  1  0
 15 16  1  0
 16 17  2  0
 16 18  1  0
 18 19  1  0
 19 20  2  0
 20 21  1  0
 21 22  2  0
 22 23  1  0
 22 24  1  0
 24 25  2  0
 25 26  1  0
 14 27  1  0
 27 28  2  0
 28 29  1  0
  9 30  2  0
 30 31  1  0
 31 32  2  0
 32 33  1  0
 33 34  1  0
 32  3  1  0
 30  5  1  0
 28 11  1  0
 25 19  1  0
  1 35  1  0
  1 36  1  0
  1 37  1  0
  4 38  1  0
  7 39  1  0
  8 40  1  0
 12 41  1  0
 13 42  1  0
 15 43  1  0
 18 44  1  0
 20 45  1  0
 21 46  1  0
 24 47  1  0
 27 48  1  0
 31 49  1  0
 34 50  1  0
 34 51  1  0
 34 52  1  0
M  END
$$$$
