[H]c1nc(N([H])c2c([H])c([H])c(N(C([H])([H])[H])C([H])([H])[H])c([H])c2[H])c2c([H])c(-c3sc(C(=O)N4C([H])([H])C([H])([H])N(C([H])([H])[H])C([H])([H])C4([H])[H])nc3C3(C([H])([H])[H])C([H])([H])OC3([H])[H])sc2n1
     RDKit          3D

 69 74  0  0  0  0  0  0  0  0999 V2000
   10.1235    1.5571   -0.9040 C   0  0  0  0  0  0  0  0  0  0  0  0
    8.9161    2.3577   -0.9305 N   0  0  0  0  0  0  0  0  0  0  0  0
    9.0187    3.7629   -1.1660 C   0  0  0  0  0  0  0  0  0  0  0  0
    7.6616    1.6905   -0.7160 C   0  0  0  0  0  0  0  0  0  0  0  0
    7.6055    0.3307   -0.4919 C   0  0  0  0  0  0  0  0  0  0  0  0
    6.4104   -0.3284   -0.2830 C   0  0  0  0  0  0  0  0  0  0  0  0
    5.2106    0.3402   -0.2873 C   0  0  0  0  0  0  0  0  0  0  0  0
    3.9504   -0.2035   -0.0658 N   0  0  0  0  0  0  0  0  0  0  0  0
    3.6000   -1.4506    0.4989 C   0  0  0  0  0  0  0  0  0  0  0  0
    4.5232   -2.3116    0.9477 N   0  0  0  0  0  0  0  0  0  0  0  0
    4.3125   -3.4825    1.4982 C   0  0  0  0  0  0  0  0  0  0  0  0
    3.0459   -3.8812    1.6369 N   0  0  0  0  0  0  0  0  0  0  0  0
    2.0537   -3.0555    1.2021 C   0  0  0  0  0  0  0  0  0  0  0  0
    0.3627   -3.2052    1.2043 S   0  0  0  0  0  0  0  0  0  0  0  0
   -0.0736   -1.7257    0.4798 C   0  0  0  0  0  0  0  0  0  0  0  0
    1.1570   -1.1498    0.2552 C   0  0  0  0  0  0  0  0  0  0  0  0
    2.2436   -1.8313    0.6253 C   0  0  0  0  0  0  0  0  0  0  0  0
   -1.3872   -1.1518    0.1860 C   0  0  0  0  0  0  0  0  0  0  0  0
   -1.6475    0.4211   -0.4145 S   0  0  0  0  0  0  0  0  0  0  0  0
   -3.3887    0.3968   -0.4813 C   0  0  0  0  0  0  0  0  0  0  0  0
   -3.6175   -0.8006   -0.0441 N   0  0  0  0  0  0  0  0  0  0  0  0
   -2.6523   -1.6263    0.3061 C   0  0  0  0  0  0  0  0  0  0  0  0
   -2.9980   -3.0362    0.7527 C   0  0  0  0  0  0  0  0  0  0  0  0
   -2.5022   -4.1340   -0.1209 C   0  0  0  0  0  0  0  0  0  0  0  0
   -2.8783   -3.2340    2.2352 C   0  0  0  0  0  0  0  0  0  0  0  0
   -4.2302   -3.1489    2.4437 O   0  0  0  0  0  0  0  0  0  0  0  0
   -4.4532   -3.2484    1.0946 C   0  0  0  0  0  0  0  0  0  0  0  0
   -4.2530    1.4837   -0.9204 C   0  0  0  0  0  0  0  0  0  0  0  0
   -3.6720    2.5553   -1.2845 O   0  0  0  0  0  0  0  0  0  0  0  0
   -5.6288    1.4292   -0.9656 N   0  0  0  0  0  0  0  0  0  0  0  0
   -6.3970    2.6261   -1.4295 C   0  0  0  0  0  0  0  0  0  0  0  0
   -7.6900    2.7231   -0.6745 C   0  0  0  0  0  0  0  0  0  0  0  0
   -7.6824    2.0889    0.6176 N   0  0  0  0  0  0  0  0  0  0  0  0
   -6.9656    2.8124    1.6164 C   0  0  0  0  0  0  0  0  0  0  0  0
   -7.3727    0.6795    0.5776 C   0  0  0  0  0  0  0  0  0  0  0  0
   -6.4988    0.3308   -0.6127 C   0  0  0  0  0  0  0  0  0  0  0  0
    5.3049    1.7208   -0.5185 C   0  0  0  0  0  0  0  0  0  0  0  0
    6.4719    2.3839   -0.7258 C   0  0  0  0  0  0  0  0  0  0  0  0
    9.9981    0.6970   -1.6013 H   0  0  0  0  0  0  0  0  0  0  0  0
   10.1659    1.1005    0.1193 H   0  0  0  0  0  0  0  0  0  0  0  0
   11.0190    2.1376   -1.1376 H   0  0  0  0  0  0  0  0  0  0  0  0
    8.3706    4.2770   -0.4005 H   0  0  0  0  0  0  0  0  0  0  0  0
   10.0504    4.1078   -0.9518 H   0  0  0  0  0  0  0  0  0  0  0  0
    8.6780    4.0324   -2.1937 H   0  0  0  0  0  0  0  0  0  0  0  0
    8.5511   -0.2115   -0.4856 H   0  0  0  0  0  0  0  0  0  0  0  0
    6.4847   -1.3862   -0.1304 H   0  0  0  0  0  0  0  0  0  0  0  0
    3.1224    0.3940   -0.3676 H   0  0  0  0  0  0  0  0  0  0  0  0
    5.1141   -4.1090    1.8301 H   0  0  0  0  0  0  0  0  0  0  0  0
    1.1811   -0.1468   -0.2239 H   0  0  0  0  0  0  0  0  0  0  0  0
   -2.0932   -5.0210    0.4166 H   0  0  0  0  0  0  0  0  0  0  0  0
   -3.3819   -4.5916   -0.6889 H   0  0  0  0  0  0  0  0  0  0  0  0
   -1.8479   -3.7964   -0.9685 H   0  0  0  0  0  0  0  0  0  0  0  0
   -2.3610   -2.3982    2.7812 H   0  0  0  0  0  0  0  0  0  0  0  0
   -2.4774   -4.1856    2.5850 H   0  0  0  0  0  0  0  0  0  0  0  0
   -5.0623   -2.4245    0.7275 H   0  0  0  0  0  0  0  0  0  0  0  0
   -4.8507   -4.2499    0.8362 H   0  0  0  0  0  0  0  0  0  0  0  0
   -5.7692    3.5295   -1.3855 H   0  0  0  0  0  0  0  0  0  0  0  0
   -6.6351    2.4370   -2.4952 H   0  0  0  0  0  0  0  0  0  0  0  0
   -7.9362    3.7878   -0.5142 H   0  0  0  0  0  0  0  0  0  0  0  0
   -8.5547    2.2953   -1.2605 H   0  0  0  0  0  0  0  0  0  0  0  0
   -6.1172    3.3922    1.1819 H   0  0  0  0  0  0  0  0  0  0  0  0
   -6.5377    2.1635    2.4079 H   0  0  0  0  0  0  0  0  0  0  0  0
   -7.6174    3.5601    2.1240 H   0  0  0  0  0  0  0  0  0  0  0  0
   -6.7931    0.4384    1.4920 H   0  0  0  0  0  0  0  0  0  0  0  0
   -8.3231    0.1230    0.5922 H   0  0  0  0  0  0  0  0  0  0  0  0
   -6.0280   -0.6320   -0.5397 H   0  0  0  0  0  0  0  0  0  0  0  0
   -7.2374    0.2394   -1.4749 H   0  0  0  0  0  0  0  0  0  0  0  0
    4.3847    2.3091   -0.5334 H   0  0  0  0  0  0  0  0  0  0  0  0
    6.5201    3.4458   -0.9015 H   0  0  0  0  0  0  0  0  0  0  0  0
  1  2  1  0
  2  3  1  0
  2  4  1  0
  4  5  2  0
  5  6  1  0
  6  7  2  0
  7  8  1  0
  8  9  1  0
  9 10  2  0
 10 11  1  0
 11 12  2  0
 12 13  1  0
 13 14  1  0
 14 15  1  0
 15 16  2  0
 16 17  1  0
 15 18  1  0
 18 19  1  0
 19 20  1  0
 20 21  2  0
 21 22  1  0
 22 23  1  0
 23 24  1  0
 23 25  1  0
 25 26  1  0
 26 27  1  0
 20 28  1  0
 28 29  2  0
 28 30  1  0
 30 31  1  0
 31 32  1  0
 32 33  1  0
 33 34  1  0
 33 35  1  0
 35 36  1  0
  7 37  1  0
 37 38  2  0
 38  4  1  0
 17  9  1  0
 22 18  2  0
 27 23  1  0
 36 30  1  0
 17 13  2  0
  1 39  1  0
  1 40  1  0
  1 41  1  0
  3 42  1  0
  3 43  1  0
  3 44  1  0
  5 45  1  0
  6 46  1  0
  8 47  1  0
 11 48  1  0
 16 49  1  0
 24 50  1  0
 24 51  1  0
 24 52  1  0
 25 53  1  0
 25 54  1  0
 27 55  1  0
 27 56  1  0
 31 57  1  0
 31 58  1  0
 32 59  1  0
 32 60  1  0
 34 61  1  0
 34 62  1  0
 34 63  1  0
 35 64  1  0
 35 65  1  0
 36 66  1  0
 36 67  1  0
 37 68  1  0
 38 69  1  0
M  END
$$$$
[H]c1c([H])c([H])c2c(c1[H])N(C(=O)C1([H])C([H])([H])C([H])([H])N(C(=O)[C@@]([H])(N([H])[H])C([H])([H])C([H])(C([H])([H])[H])C([H])([H])[H])C([H])([H])C1([H])[H])C([H])([H])C([H])([H])c1c([H])c([H])c([H])c([H])c1C([H])([H])C2([H])[H]
     RDKit          3D

 70 73  0  0  0  0  0  0  0  0999 V2000
    8.0133   -0.4150   -1.1766 C   0  0  0  0  0  0  0  0  0  0  0  0
    6.8186    0.2356   -1.7971 C   0  0  0  0  0  0  0  0  0  0  0  0
    7.2411    1.5419   -2.4798 C   0  0  0  0  0  0  0  0  0  0  0  0
    5.7403    0.5733   -0.8193 C   0  0  0  0  0  0  0  0  0  0  0  0
    5.1921   -0.6471   -0.0828 C   0  0  2  0  0  0  0  0  0  0  0  0
    4.6446   -1.5595   -1.0435 N   0  0  0  0  0  0  0  0  0  0  0  0
    4.2419   -0.2167    0.9382 C   0  0  0  0  0  0  0  0  0  0  0  0
    4.7657    0.4562    1.9036 O   0  0  0  0  0  0  0  0  0  0  0  0
    2.8552   -0.4346    1.0094 N   0  0  0  0  0  0  0  0  0  0  0  0
    2.1105    0.0802    2.1852 C   0  0  0  0  0  0  0  0  0  0  0  0
    1.1178   -1.0249    2.5926 C   0  0  0  0  0  0  0  0  0  0  0  0
   -0.0198   -1.0561    1.5442 C   0  0  0  0  0  0  0  0  0  0  0  0
    0.5932   -0.6189    0.2450 C   0  0  0  0  0  0  0  0  0  0  0  0
    2.0243   -1.1115    0.0500 C   0  0  0  0  0  0  0  0  0  0  0  0
   -1.0390   -0.0987    2.0062 C   0  0  0  0  0  0  0  0  0  0  0  0
   -0.8187    0.4876    3.1172 O   0  0  0  0  0  0  0  0  0  0  0  0
   -2.2500    0.2558    1.3412 N   0  0  0  0  0  0  0  0  0  0  0  0
   -2.9085    1.4719    1.8537 C   0  0  0  0  0  0  0  0  0  0  0  0
   -4.3398    1.3459    2.1370 C   0  0  0  0  0  0  0  0  0  0  0  0
   -5.3028    1.0474    1.0880 C   0  0  0  0  0  0  0  0  0  0  0  0
   -6.3953    0.2533    1.4950 C   0  0  0  0  0  0  0  0  0  0  0  0
   -7.4162   -0.1363    0.6875 C   0  0  0  0  0  0  0  0  0  0  0  0
   -7.4108    0.2580   -0.6315 C   0  0  0  0  0  0  0  0  0  0  0  0
   -6.3698    1.0234   -1.0490 C   0  0  0  0  0  0  0  0  0  0  0  0
   -5.3031    1.4364   -0.2248 C   0  0  0  0  0  0  0  0  0  0  0  0
   -4.2413    2.2763   -0.8766 C   0  0  0  0  0  0  0  0  0  0  0  0
   -3.1301    1.4432   -1.3981 C   0  0  0  0  0  0  0  0  0  0  0  0
   -3.1199    0.0227   -0.9913 C   0  0  0  0  0  0  0  0  0  0  0  0
   -3.5643   -0.8497   -1.9747 C   0  0  0  0  0  0  0  0  0  0  0  0
   -3.6424   -2.2153   -1.7936 C   0  0  0  0  0  0  0  0  0  0  0  0
   -3.2595   -2.7203   -0.5785 C   0  0  0  0  0  0  0  0  0  0  0  0
   -2.8187   -1.8528    0.3971 C   0  0  0  0  0  0  0  0  0  0  0  0
   -2.7347   -0.4760    0.2268 C   0  0  0  0  0  0  0  0  0  0  0  0
    8.1548   -1.4426   -1.5596 H   0  0  0  0  0  0  0  0  0  0  0  0
    8.9394    0.1492   -1.4710 H   0  0  0  0  0  0  0  0  0  0  0  0
    8.0003   -0.3696   -0.0624 H   0  0  0  0  0  0  0  0  0  0  0  0
    6.3999   -0.4104   -2.5931 H   0  0  0  0  0  0  0  0  0  0  0  0
    6.3323    2.1774   -2.6421 H   0  0  0  0  0  0  0  0  0  0  0  0
    7.7306    1.2758   -3.4383 H   0  0  0  0  0  0  0  0  0  0  0  0
    7.9771    2.0490   -1.8543 H   0  0  0  0  0  0  0  0  0  0  0  0
    4.8670    0.9674   -1.4097 H   0  0  0  0  0  0  0  0  0  0  0  0
    6.0634    1.3039   -0.0521 H   0  0  0  0  0  0  0  0  0  0  0  0
    6.0892   -1.1689    0.3639 H   0  0  0  0  0  0  0  0  0  0  0  0
    4.4775   -1.0456   -1.9323 H   0  0  0  0  0  0  0  0  0  0  0  0
    5.2894   -2.3808   -1.2436 H   0  0  0  0  0  0  0  0  0  0  0  0
    2.8077    0.1883    3.0260 H   0  0  0  0  0  0  0  0  0  0  0  0
    1.5761    0.9914    1.9248 H   0  0  0  0  0  0  0  0  0  0  0  0
    1.6331   -1.9821    2.6578 H   0  0  0  0  0  0  0  0  0  0  0  0
    0.7272   -0.7263    3.5849 H   0  0  0  0  0  0  0  0  0  0  0  0
   -0.3100   -2.1025    1.4840 H   0  0  0  0  0  0  0  0  0  0  0  0
   -0.0228   -0.9475   -0.5945 H   0  0  0  0  0  0  0  0  0  0  0  0
    0.5840    0.4945    0.2232 H   0  0  0  0  0  0  0  0  0  0  0  0
    2.0997   -2.1850    0.2166 H   0  0  0  0  0  0  0  0  0  0  0  0
    2.2925   -0.8202   -0.9960 H   0  0  0  0  0  0  0  0  0  0  0  0
   -2.4766    1.6815    2.8960 H   0  0  0  0  0  0  0  0  0  0  0  0
   -2.5375    2.3726    1.3479 H   0  0  0  0  0  0  0  0  0  0  0  0
   -4.6413    2.2524    2.7466 H   0  0  0  0  0  0  0  0  0  0  0  0
   -4.3964    0.5285    2.9306 H   0  0  0  0  0  0  0  0  0  0  0  0
   -6.4587   -0.0933    2.5365 H   0  0  0  0  0  0  0  0  0  0  0  0
   -8.2434   -0.7516    1.0435 H   0  0  0  0  0  0  0  0  0  0  0  0
   -8.2113   -0.0358   -1.3042 H   0  0  0  0  0  0  0  0  0  0  0  0
   -6.3759    1.3303   -2.1017 H   0  0  0  0  0  0  0  0  0  0  0  0
   -4.7315    2.7474   -1.7848 H   0  0  0  0  0  0  0  0  0  0  0  0
   -3.9605    3.1642   -0.3246 H   0  0  0  0  0  0  0  0  0  0  0  0
   -2.1823    1.8986   -0.9745 H   0  0  0  0  0  0  0  0  0  0  0  0
   -3.0368    1.5884   -2.4846 H   0  0  0  0  0  0  0  0  0  0  0  0
   -3.8828   -0.4934   -2.9650 H   0  0  0  0  0  0  0  0  0  0  0  0
   -4.0024   -2.8642   -2.6081 H   0  0  0  0  0  0  0  0  0  0  0  0
   -3.3107   -3.7875   -0.4075 H   0  0  0  0  0  0  0  0  0  0  0  0
   -2.5340   -2.3292    1.3511 H   0  0  0  0  0  0  0  0  0  0  0  0
  1  2  1  0
  2  3  1  0
  2  4  1  0
  4  5  1  0
  5  6  1  0
  5  7  1  0
  7  8  2  0
  7  9  1  0
  9 10  1  0
 10 11  1  0
 11 12  1  0
 12 13  1  0
 13 14  1  0
 12 15  1  0
 15 16  2  0
 15 17  1  0
 17 18  1  0
 18 19  1  0
 19 20  1  0
 20 21  2  0
 21 22  1  0
 22 23  2  0
 23 24  1  0
 24 25  2  0
 25 26  1  0
 26 27  1  0
 27 28  1  0
 28 29  2  0
 29 30  1  0
 30 31  2  0
 31 32  1  0
 32 33  2  0
 14  9  1  0
 33 17  1  0
 25 20  1  0
 33 28  1  0
  1 34  1  0
  1 35  1  0
  1 36  1  0
  2 37  1  0
  3 38  1  0
  3 39  1  0
  3 40  1  0
  4 41  1  0
  4 42  1  0
  5 43  1  1
  6 44  1  0
  6 45  1  0
 10 46  1  0
 10 47  1  0
 11 48  1  0
 11 49  1  0
 12 50  1  0
 13 51  1  0
 13 52  1  0
 14 53  1  0
 14 54  1  0
 18 55  1  0
 18 56  1  0
 19 57  1  0
 19 58  1  0
 21 59  1  0
 22 60  1  0
 23 61  1  0
 24 62  1  0
 26 63  1  0
 26 64  1  0
 27 65  1  0
 27 66  1  0
 29 67  1  0
 30 68  1  0
 31 69  1  0
 32 70  1  0
M  END
$$$$
[H]c1nc([H])c(N([H])c2nc3c(c([H])c2C(=O)N([H])[H])c(-c2c([H])c([H])c(OC([H])([H])[H])c(F)c2[H])c([H])n3[H])c([H])c1[H]
     RDKit          3D

 44 47  0  0  0  0  0  0  0  0999 V2000
    7.0602   -0.1567   -1.4849 C   0  0  0  0  0  0  0  0  0  0  0  0
    6.3592    1.0470   -1.4995 O   0  0  0  0  0  0  0  0  0  0  0  0
    5.0808    1.2122   -0.9882 C   0  0  0  0  0  0  0  0  0  0  0  0
    4.4644    0.1141   -0.4295 C   0  0  0  0  0  0  0  0  0  0  0  0
    3.1800    0.1920    0.1076 C   0  0  0  0  0  0  0  0  0  0  0  0
    2.5073    1.3895    0.0819 C   0  0  0  0  0  0  0  0  0  0  0  0
    3.1473    2.4963   -0.4892 C   0  0  0  0  0  0  0  0  0  0  0  0
    4.4180    2.4166   -1.0196 C   0  0  0  0  0  0  0  0  0  0  0  0
    5.0394    3.4928   -1.5746 F   0  0  0  0  0  0  0  0  0  0  0  0
    1.1671    1.5096    0.6238 C   0  0  0  0  0  0  0  0  0  0  0  0
    0.6946    2.4646    1.4996 C   0  0  0  0  0  0  0  0  0  0  0  0
   -0.5996    2.2058    1.7572 N   0  0  0  0  0  0  0  0  0  0  0  0
   -1.0108    1.1085    1.0826 C   0  0  0  0  0  0  0  0  0  0  0  0
   -2.1513    0.4347    0.9750 N   0  0  0  0  0  0  0  0  0  0  0  0
   -2.2339   -0.6742    0.1741 C   0  0  0  0  0  0  0  0  0  0  0  0
   -3.4732   -1.3436    0.1739 N   0  0  0  0  0  0  0  0  0  0  0  0
   -4.6524   -0.9005    0.8508 C   0  0  0  0  0  0  0  0  0  0  0  0
   -5.5181   -1.8650    1.3836 C   0  0  0  0  0  0  0  0  0  0  0  0
   -6.6805   -1.5000    2.0123 C   0  0  0  0  0  0  0  0  0  0  0  0
   -6.9553   -0.1626    2.0956 C   0  0  0  0  0  0  0  0  0  0  0  0
   -6.1241    0.7534    1.5840 N   0  0  0  0  0  0  0  0  0  0  0  0
   -4.9580    0.4191    0.9511 C   0  0  0  0  0  0  0  0  0  0  0  0
   -1.1751   -1.1313   -0.5368 C   0  0  0  0  0  0  0  0  0  0  0  0
    0.0424   -0.4240   -0.4302 C   0  0  0  0  0  0  0  0  0  0  0  0
    0.0942    0.6743    0.3744 C   0  0  0  0  0  0  0  0  0  0  0  0
   -1.1864   -2.2767   -1.4142 C   0  0  0  0  0  0  0  0  0  0  0  0
    0.0281   -2.6512   -2.0981 N   0  0  0  0  0  0  0  0  0  0  0  0
   -2.1476   -3.0212   -1.6736 O   0  0  0  0  0  0  0  0  0  0  0  0
    7.0284   -0.5480   -0.4257 H   0  0  0  0  0  0  0  0  0  0  0  0
    8.1359    0.0307   -1.6845 H   0  0  0  0  0  0  0  0  0  0  0  0
    6.6390   -0.9465   -2.1234 H   0  0  0  0  0  0  0  0  0  0  0  0
    5.0082   -0.8299   -0.4155 H   0  0  0  0  0  0  0  0  0  0  0  0
    2.7272   -0.6735    0.5396 H   0  0  0  0  0  0  0  0  0  0  0  0
    2.6077    3.4207   -0.4999 H   0  0  0  0  0  0  0  0  0  0  0  0
    1.3016    3.2888    1.9023 H   0  0  0  0  0  0  0  0  0  0  0  0
   -1.2150    2.7561    2.3814 H   0  0  0  0  0  0  0  0  0  0  0  0
   -3.6128   -2.2409   -0.3343 H   0  0  0  0  0  0  0  0  0  0  0  0
   -5.2814   -2.9186    1.3066 H   0  0  0  0  0  0  0  0  0  0  0  0
   -7.3754   -2.2367    2.4381 H   0  0  0  0  0  0  0  0  0  0  0  0
   -7.8735    0.1574    2.5911 H   0  0  0  0  0  0  0  0  0  0  0  0
   -4.3770    1.2508    0.5592 H   0  0  0  0  0  0  0  0  0  0  0  0
    0.9186   -0.7546   -0.9877 H   0  0  0  0  0  0  0  0  0  0  0  0
    0.8351   -3.0365   -1.5721 H   0  0  0  0  0  0  0  0  0  0  0  0
    0.1168   -2.5423   -3.1269 H   0  0  0  0  0  0  0  0  0  0  0  0
  1  2  1  0
  2  3  1  0
  3  4  2  0
  4  5  1  0
  5  6  2  0
  6  7  1  0
  7  8  2  0
  8  9  1  0
  6 10  1  0
 10 11  2  0
 11 12  1  0
 12 13  1  0
 13 14  2  0
 14 15  1  0
 15 16  1  0
 16 17  1  0
 17 18  2  0
 18 19  1  0
 19 20  2  0
 20 21  1  0
 21 22  2  0
 15 23  2  0
 23 24  1  0
 24 25  2  0
 23 26  1  0
 26 27  1  0
 26 28  2  0
  8  3  1  0
 25 10  1  0
 25 13  1  0
 22 17  1  0
  1 29  1  0
  1 30  1  0
  1 31  1  0
  4 32  1  0
  5 33  1  0
  7 34  1  0
 11 35  1  0
 12 36  1  0
 16 37  1  0
 18 38  1  0
 19 39  1  0
 20 40  1  0
 22 41  1  0
 24 42  1  0
 27 43  1  0
 27 44  1  0
M  END
$$$$
[H]c1c([H])c(C([H])([H])N(C([H])([H])[H])S(=O)(=O)c2c([H])c([H])c3c(c2[H])OC([H])([H])C([H])([H])O3)c([H])c(Cl)c1Cl
     RDKit          3D

 39 41  0  0  0  0  0  0  0  0999 V2000
    0.5019   -0.8265   -2.5011 C   0  0  0  0  0  0  0  0  0  0  0  0
    1.3369   -0.1032   -1.5560 N   0  0  0  0  0  0  0  0  0  0  0  0
    1.8384   -0.9927   -0.5245 C   0  0  0  0  0  0  0  0  0  0  0  0
    3.2046   -0.5522   -0.1722 C   0  0  0  0  0  0  0  0  0  0  0  0
    4.2394   -0.7992   -1.0639 C   0  0  0  0  0  0  0  0  0  0  0  0
    5.5013   -0.3823   -0.7072 C   0  0  0  0  0  0  0  0  0  0  0  0
    5.7547    0.2617    0.4912 C   0  0  0  0  0  0  0  0  0  0  0  0
    7.3903    0.7628    0.8743 Cl  0  0  0  0  0  0  0  0  0  0  0  0
    4.6905    0.4821    1.3407 C   0  0  0  0  0  0  0  0  0  0  0  0
    4.9857    1.3010    2.8747 Cl  0  0  0  0  0  0  0  0  0  0  0  0
    3.4096    0.0855    1.0322 C   0  0  0  0  0  0  0  0  0  0  0  0
    0.4997    1.2567   -0.9159 S   0  0  0  0  0  0  0  0  0  0  0  0
    0.1054    2.1018   -2.1233 O   0  0  0  0  0  0  0  0  0  0  0  0
    1.3383    2.1265   -0.0641 O   0  0  0  0  0  0  0  0  0  0  0  0
   -0.9438    0.7749   -0.0327 C   0  0  0  0  0  0  0  0  0  0  0  0
   -0.8777    0.5055    1.3178 C   0  0  0  0  0  0  0  0  0  0  0  0
   -2.0268    0.1231    2.0153 C   0  0  0  0  0  0  0  0  0  0  0  0
   -3.2449    0.0062    1.3785 C   0  0  0  0  0  0  0  0  0  0  0  0
   -4.4012   -0.3700    2.0391 O   0  0  0  0  0  0  0  0  0  0  0  0
   -5.6479   -0.4942    1.4114 C   0  0  0  0  0  0  0  0  0  0  0  0
   -5.7698    0.3411    0.1609 C   0  0  0  0  0  0  0  0  0  0  0  0
   -4.5569    0.1464   -0.5774 O   0  0  0  0  0  0  0  0  0  0  0  0
   -3.3138    0.2740    0.0331 C   0  0  0  0  0  0  0  0  0  0  0  0
   -2.1744    0.6509   -0.6479 C   0  0  0  0  0  0  0  0  0  0  0  0
   -0.3373   -1.3495   -2.0093 H   0  0  0  0  0  0  0  0  0  0  0  0
    1.1520   -1.5999   -2.9743 H   0  0  0  0  0  0  0  0  0  0  0  0
    0.1902   -0.1330   -3.2964 H   0  0  0  0  0  0  0  0  0  0  0  0
    1.8629   -2.0492   -0.8700 H   0  0  0  0  0  0  0  0  0  0  0  0
    1.2135   -0.9747    0.3827 H   0  0  0  0  0  0  0  0  0  0  0  0
    4.0257   -1.3092   -2.0077 H   0  0  0  0  0  0  0  0  0  0  0  0
    6.3065   -0.5823   -1.4166 H   0  0  0  0  0  0  0  0  0  0  0  0
    2.6078    0.2868    1.7516 H   0  0  0  0  0  0  0  0  0  0  0  0
    0.0633    0.5907    1.8341 H   0  0  0  0  0  0  0  0  0  0  0  0
   -1.9864   -0.0903    3.0735 H   0  0  0  0  0  0  0  0  0  0  0  0
   -5.7543   -1.5615    1.0864 H   0  0  0  0  0  0  0  0  0  0  0  0
   -6.4593   -0.1861    2.1027 H   0  0  0  0  0  0  0  0  0  0  0  0
   -5.8951    1.4280    0.4213 H   0  0  0  0  0  0  0  0  0  0  0  0
   -6.6035   -0.0361   -0.4610 H   0  0  0  0  0  0  0  0  0  0  0  0
   -2.2256    0.8608   -1.6999 H   0  0  0  0  0  0  0  0  0  0  0  0
  1  2  1  0
  2  3  1  0
  3  4  1  0
  4  5  2  0
  5  6  1  0
  6  7  2  0
  7  8  1  0
  7  9  1  0
  9 10  1  0
  9 11  2  0
  2 12  1  0
 12 13  2  0
 12 14  2  0
 12 15  1  0
 15 16  2  0
 16 17  1  0
 17 18  2  0
 18 19  1  0
 19 20  1  0
 20 21  1  0
 21 22  1  0
 22 23  1  0
 23 24  2  0
 11  4  1  0
 24 15  1  0
 23 18  1  0
  1 25  1  0
  1 26  1  0
  1 27  1  0
  3 28  1  0
  3 29  1  0
  5 30  1  0
  6 31  1  0
 11 32  1  0
 16 33  1  0
 17 34  1  0
 20 35  1  0
 20 36  1  0
 21 37  1  0
 21 38  1  0
 24 39  1  0
M  END
$$$$
[H]OC([H])([H])C([H])(C(=O)N([H])[C@]([H])(c1c([H])c([H])c(-c2nc([H])c([H])c([H])c2[H])c([H])c1[H])C([H])([H])C([H])([H])C([H])([H])[H])N([H])C(=O)C([H])(c1nc2c([H])c(Cl)c([H])c([H])c2o1)C(F)(F)F
     RDKit          3D

 66 69  0  0  0  0  0  0  0  0999 V2000
   -0.9229   -3.2211   -1.7313 C   0  0  0  0  0  0  0  0  0  0  0  0
   -0.0750   -2.6029   -2.8175 C   0  0  0  0  0  0  0  0  0  0  0  0
    1.3246   -2.3278   -2.3271 C   0  0  0  0  0  0  0  0  0  0  0  0
    1.2765   -1.3714   -1.1879 C   0  0  2  0  0  0  0  0  0  0  0  0
    0.6728   -0.1122   -1.6094 N   0  0  0  0  0  0  0  0  0  0  0  0
   -0.4199    0.4973   -0.9555 C   0  0  0  0  0  0  0  0  0  0  0  0
   -0.9082   -0.0816    0.0546 O   0  0  0  0  0  0  0  0  0  0  0  0
   -1.0431    1.7762   -1.3677 C   0  0  0  0  0  0  0  0  0  0  0  0
   -0.0192    2.8953   -1.1496 C   0  0  0  0  0  0  0  0  0  0  0  0
    1.1319    2.7354   -1.8690 O   0  0  0  0  0  0  0  0  0  0  0  0
   -2.1692    2.1221   -0.5409 N   0  0  0  0  0  0  0  0  0  0  0  0
   -3.3783    2.5214   -1.1311 C   0  0  0  0  0  0  0  0  0  0  0  0
   -3.4738    2.5764   -2.3812 O   0  0  0  0  0  0  0  0  0  0  0  0
   -4.5868    2.8938   -0.3471 C   0  0  0  0  0  0  0  0  0  0  0  0
   -5.0348    1.7261    0.4773 C   0  0  0  0  0  0  0  0  0  0  0  0
   -5.4953    0.5374    0.0267 N   0  0  0  0  0  0  0  0  0  0  0  0
   -5.7822   -0.2162    1.0941 C   0  0  0  0  0  0  0  0  0  0  0  0
   -6.2708   -1.4832    1.2657 C   0  0  0  0  0  0  0  0  0  0  0  0
   -6.4840   -2.0461    2.5200 C   0  0  0  0  0  0  0  0  0  0  0  0
   -7.1126   -3.6738    2.6516 Cl  0  0  0  0  0  0  0  0  0  0  0  0
   -6.1929   -1.3012    3.6470 C   0  0  0  0  0  0  0  0  0  0  0  0
   -5.6990   -0.0207    3.4617 C   0  0  0  0  0  0  0  0  0  0  0  0
   -5.4900    0.5311    2.2166 C   0  0  0  0  0  0  0  0  0  0  0  0
   -5.0501    1.6749    1.7684 O   0  0  0  0  0  0  0  0  0  0  0  0
   -5.7406    3.2623   -1.2504 C   0  0  0  0  0  0  0  0  0  0  0  0
   -6.8644    3.6087   -0.5296 F   0  0  0  0  0  0  0  0  0  0  0  0
   -6.0898    2.1917   -2.0490 F   0  0  0  0  0  0  0  0  0  0  0  0
   -5.4081    4.3653   -2.0195 F   0  0  0  0  0  0  0  0  0  0  0  0
    2.6042   -1.1360   -0.5752 C   0  0  0  0  0  0  0  0  0  0  0  0
    2.7380   -0.1099    0.3275 C   0  0  0  0  0  0  0  0  0  0  0  0
    3.9750    0.1553    0.9314 C   0  0  0  0  0  0  0  0  0  0  0  0
    5.0734   -0.6323    0.6091 C   0  0  0  0  0  0  0  0  0  0  0  0
    4.9449   -1.6465   -0.2817 C   0  0  0  0  0  0  0  0  0  0  0  0
    3.6945   -1.8935   -0.8746 C   0  0  0  0  0  0  0  0  0  0  0  0
    6.3535   -0.3318    1.2533 C   0  0  0  0  0  0  0  0  0  0  0  0
    7.5049   -1.0362    1.0151 C   0  0  0  0  0  0  0  0  0  0  0  0
    8.6939   -0.6942    1.6642 C   0  0  0  0  0  0  0  0  0  0  0  0
    8.7089    0.3582    2.5496 C   0  0  0  0  0  0  0  0  0  0  0  0
    7.5453    1.0576    2.7800 C   0  0  0  0  0  0  0  0  0  0  0  0
    6.4279    0.7043    2.1431 N   0  0  0  0  0  0  0  0  0  0  0  0
   -1.6838   -2.5044   -1.3704 H   0  0  0  0  0  0  0  0  0  0  0  0
   -0.2336   -3.5648   -0.9325 H   0  0  0  0  0  0  0  0  0  0  0  0
   -1.4373   -4.1329   -2.1088 H   0  0  0  0  0  0  0  0  0  0  0  0
    0.0321   -3.3509   -3.6505 H   0  0  0  0  0  0  0  0  0  0  0  0
   -0.5559   -1.7051   -3.2562 H   0  0  0  0  0  0  0  0  0  0  0  0
    1.7263   -3.3198   -1.9976 H   0  0  0  0  0  0  0  0  0  0  0  0
    1.9918   -1.9919   -3.1531 H   0  0  0  0  0  0  0  0  0  0  0  0
    0.6459   -1.7918   -0.3837 H   0  0  0  0  0  0  0  0  0  0  0  0
    1.0604    0.3830   -2.4534 H   0  0  0  0  0  0  0  0  0  0  0  0
   -1.3253    1.8443   -2.4144 H   0  0  0  0  0  0  0  0  0  0  0  0
   -0.4578    3.8817   -1.4031 H   0  0  0  0  0  0  0  0  0  0  0  0
    0.2438    2.9651   -0.0552 H   0  0  0  0  0  0  0  0  0  0  0  0
    1.9369    2.6005   -1.2765 H   0  0  0  0  0  0  0  0  0  0  0  0
   -2.0830    2.0751    0.4827 H   0  0  0  0  0  0  0  0  0  0  0  0
   -4.3414    3.7334    0.3115 H   0  0  0  0  0  0  0  0  0  0  0  0
   -6.5042   -2.0775    0.4034 H   0  0  0  0  0  0  0  0  0  0  0  0
   -6.3493   -1.7130    4.6269 H   0  0  0  0  0  0  0  0  0  0  0  0
   -5.4732    0.5555    4.3701 H   0  0  0  0  0  0  0  0  0  0  0  0
    1.9314    0.5440    0.6284 H   0  0  0  0  0  0  0  0  0  0  0  0
    4.1089    0.9536    1.6423 H   0  0  0  0  0  0  0  0  0  0  0  0
    5.7843   -2.2711   -0.5464 H   0  0  0  0  0  0  0  0  0  0  0  0
    3.6798   -2.7216   -1.5744 H   0  0  0  0  0  0  0  0  0  0  0  0
    7.5014   -1.8757    0.3116 H   0  0  0  0  0  0  0  0  0  0  0  0
    9.5943   -1.2651    1.4615 H   0  0  0  0  0  0  0  0  0  0  0  0
    9.6481    0.6165    3.0517 H   0  0  0  0  0  0  0  0  0  0  0  0
    7.6003    1.8807    3.4855 H   0  0  0  0  0  0  0  0  0  0  0  0
  1  2  1  0
  2  3  1  0
  3  4  1  0
  4  5  1  0
  5  6  1  0
  6  7  2  0
  6  8  1  0
  8  9  1  0
  9 10  1  0
  8 11  1  0
 11 12  1  0
 12 13  2  0
 12 14  1  0
 14 15  1  0
 15 16  2  0
 16 17  1  0
 17 18  2  0
 18 19  1  0
 19 20  1  0
 19 21  2  0
 21 22  1  0
 22 23  2  0
 23 24  1  0
 14 25  1  0
 25 26  1  0
 25 27  1  0
 25 28  1  0
  4 29  1  0
 29 30  2  0
 30 31  1  0
 31 32  2  0
 32 33  1  0
 33 34  2  0
 32 35  1  0
 35 36  2  0
 36 37  1  0
 37 38  2  0
 38 39  1  0
 39 40  2  0
 24 15  1  0
 34 29  1  0
 40 35  1  0
 23 17  1  0
  1 41  1  0
  1 42  1  0
  1 43  1  0
  2 44  1  0
  2 45  1  0
  3 46  1  0
  3 47  1  0
  4 48  1  1
  5 49  1  0
  8 50  1  0
  9 51  1  0
  9 52  1  0
 10 53  1  0
 11 54  1  0
 14 55  1  0
 18 56  1  0
 21 57  1  0
 22 58  1  0
 30 59  1  0
 31 60  1  0
 33 61  1  0
 34 62  1  0
 36 63  1  0
 37 64  1  0
 38 65  1  0
 39 66  1  0
M  END
$$$$
[H]c1c([H])c([H])c2c(c1[H])C([H])([H])N(C([H])([H])C(=O)N1C([H])([H])C([H])([H])C([H])(OC(=O)N([H])C(C#N)(C([H])([H])[H])C([H])([H])[H])C([H])([H])C1([H])[H])C([H])([H])C([H])([H])C21C([H])([H])C([H])([H])N(C([H])([H])C([H])([H])C([H])([H])Oc2c([H])c([H])c(C(F)(F)F)c([H])c2F)C([H])([H])C1([H])[H]
     RDKit          3D

 94 98  0  0  0  0  0  0  0  0999 V2000
    8.4038   -2.5047    0.9242 F   0  0  0  0  0  0  0  0  0  0  0  0
    9.1164   -1.4409    0.4469 C   0  0  0  0  0  0  0  0  0  0  0  0
   10.0202   -1.5674   -0.5588 C   0  0  0  0  0  0  0  0  0  0  0  0
   10.7654   -0.5329   -1.0588 C   0  0  0  0  0  0  0  0  0  0  0  0
   10.5373    0.7072   -0.4530 C   0  0  0  0  0  0  0  0  0  0  0  0
    9.6304    0.8338    0.5529 C   0  0  0  0  0  0  0  0  0  0  0  0
    8.8579   -0.2199    1.0738 C   0  0  0  0  0  0  0  0  0  0  0  0
    7.9634   -0.0991    2.0696 O   0  0  0  0  0  0  0  0  0  0  0  0
    7.5616    1.1068    2.6938 C   0  0  0  0  0  0  0  0  0  0  0  0
    6.7579    1.8293    1.5615 C   0  0  0  0  0  0  0  0  0  0  0  0
    5.5956    0.8966    1.2055 C   0  0  0  0  0  0  0  0  0  0  0  0
    4.5743    0.7932    2.1313 N   0  0  0  0  0  0  0  0  0  0  0  0
    3.6109    1.8807    2.0705 C   0  0  0  0  0  0  0  0  0  0  0  0
    2.6530    1.5493    0.9299 C   0  0  0  0  0  0  0  0  0  0  0  0
    1.7354    0.3446    1.3024 C   0  0  0  0  0  0  0  0  0  0  0  0
    2.4647   -0.3828    2.3906 C   0  0  0  0  0  0  0  0  0  0  0  0
    3.9441   -0.4565    2.2492 C   0  0  0  0  0  0  0  0  0  0  0  0
    0.4756    0.9762    1.7623 C   0  0  0  0  0  0  0  0  0  0  0  0
   -0.7975    0.8469    1.0523 C   0  0  0  0  0  0  0  0  0  0  0  0
   -1.0108    1.0675   -0.2683 N   0  0  0  0  0  0  0  0  0  0  0  0
    0.0674    1.1907   -1.2192 C   0  0  0  0  0  0  0  0  0  0  0  0
    0.9129   -0.0623   -1.0406 C   0  0  0  0  0  0  0  0  0  0  0  0
    0.8572   -0.8642   -2.1462 C   0  0  0  0  0  0  0  0  0  0  0  0
    1.4341   -2.1443   -2.1422 C   0  0  0  0  0  0  0  0  0  0  0  0
    2.0611   -2.5829   -1.0051 C   0  0  0  0  0  0  0  0  0  0  0  0
    2.0994   -1.7336    0.0931 C   0  0  0  0  0  0  0  0  0  0  0  0
    1.5411   -0.4713    0.1058 C   0  0  0  0  0  0  0  0  0  0  0  0
   -2.2856    0.9179   -0.8739 C   0  0  0  0  0  0  0  0  0  0  0  0
   -2.8423   -0.4475   -0.8778 C   0  0  0  0  0  0  0  0  0  0  0  0
   -2.1973   -1.3871   -0.3145 O   0  0  0  0  0  0  0  0  0  0  0  0
   -4.0405   -0.7736   -1.4643 N   0  0  0  0  0  0  0  0  0  0  0  0
   -4.5896   -2.1332   -1.3272 C   0  0  0  0  0  0  0  0  0  0  0  0
   -5.8880   -2.0343   -0.5395 C   0  0  0  0  0  0  0  0  0  0  0  0
   -6.6853   -0.8897   -1.0055 C   0  0  0  0  0  0  0  0  0  0  0  0
   -6.2238   -0.4758   -2.4305 C   0  0  0  0  0  0  0  0  0  0  0  0
   -4.8412    0.1595   -2.2415 C   0  0  0  0  0  0  0  0  0  0  0  0
   -8.0276   -0.9984   -0.9354 O   0  0  0  0  0  0  0  0  0  0  0  0
   -9.1341   -0.4074   -0.6880 C   0  0  0  0  0  0  0  0  0  0  0  0
   -8.7895    0.9511   -0.4036 O   0  0  0  0  0  0  0  0  0  0  0  0
  -10.5011   -0.5219   -0.5701 N   0  0  0  0  0  0  0  0  0  0  0  0
  -11.3674    0.5728   -0.2229 C   0  0  0  0  0  0  0  0  0  0  0  0
  -10.9884    1.1413    1.1411 C   0  0  0  0  0  0  0  0  0  0  0  0
  -12.7781   -0.0074   -0.0863 C   0  0  0  0  0  0  0  0  0  0  0  0
  -11.3744    1.6170   -1.2252 C   0  0  0  0  0  0  0  0  0  0  0  0
  -11.3678    2.4645   -2.0146 N   0  0  0  0  0  0  0  0  0  0  0  0
   11.7064   -0.6778   -2.1871 C   0  0  0  0  0  0  0  0  0  0  0  0
   12.4143    0.5176   -2.3500 F   0  0  0  0  0  0  0  0  0  0  0  0
   12.6067   -1.6626   -1.8992 F   0  0  0  0  0  0  0  0  0  0  0  0
   11.0073   -0.8787   -3.3774 F   0  0  0  0  0  0  0  0  0  0  0  0
   10.1491   -2.5590   -1.0066 H   0  0  0  0  0  0  0  0  0  0  0  0
   11.1280    1.5617   -0.8168 H   0  0  0  0  0  0  0  0  0  0  0  0
    9.5032    1.7953    1.0519 H   0  0  0  0  0  0  0  0  0  0  0  0
    6.9800    0.9505    3.5891 H   0  0  0  0  0  0  0  0  0  0  0  0
    8.4630    1.6849    2.9064 H   0  0  0  0  0  0  0  0  0  0  0  0
    6.4363    2.8012    1.9166 H   0  0  0  0  0  0  0  0  0  0  0  0
    7.3491    1.8954    0.6891 H   0  0  0  0  0  0  0  0  0  0  0  0
    5.2925    1.2143    0.1650 H   0  0  0  0  0  0  0  0  0  0  0  0
    6.0906   -0.1069    1.0553 H   0  0  0  0  0  0  0  0  0  0  0  0
    3.1029    1.9664    3.0257 H   0  0  0  0  0  0  0  0  0  0  0  0
    4.1218    2.7972    1.8265 H   0  0  0  0  0  0  0  0  0  0  0  0
    2.0681    2.4737    0.7760 H   0  0  0  0  0  0  0  0  0  0  0  0
    3.2523    1.3587    0.0537 H   0  0  0  0  0  0  0  0  0  0  0  0
    1.9905   -1.3436    2.6782 H   0  0  0  0  0  0  0  0  0  0  0  0
    2.2912    0.2450    3.3236 H   0  0  0  0  0  0  0  0  0  0  0  0
    4.2866   -0.8620    3.2880 H   0  0  0  0  0  0  0  0  0  0  0  0
    4.3604   -1.2390    1.5783 H   0  0  0  0  0  0  0  0  0  0  0  0
    0.6958    2.0674    2.0114 H   0  0  0  0  0  0  0  0  0  0  0  0
    0.2949    0.5269    2.8115 H   0  0  0  0  0  0  0  0  0  0  0  0
   -1.2442   -0.1615    1.3827 H   0  0  0  0  0  0  0  0  0  0  0  0
   -1.5075    1.5841    1.6224 H   0  0  0  0  0  0  0  0  0  0  0  0
    0.6087    2.0990   -0.9932 H   0  0  0  0  0  0  0  0  0  0  0  0
   -0.3136    1.2207   -2.2643 H   0  0  0  0  0  0  0  0  0  0  0  0
    0.3710   -0.5245   -3.0333 H   0  0  0  0  0  0  0  0  0  0  0  0
    1.4019   -2.7967   -2.9980 H   0  0  0  0  0  0  0  0  0  0  0  0
    2.5107   -3.5876   -0.9431 H   0  0  0  0  0  0  0  0  0  0  0  0
    2.5608   -2.1555    0.9622 H   0  0  0  0  0  0  0  0  0  0  0  0
   -2.9969    1.6306   -0.3566 H   0  0  0  0  0  0  0  0  0  0  0  0
   -2.2456    1.3329   -1.9209 H   0  0  0  0  0  0  0  0  0  0  0  0
   -3.9063   -2.8607   -0.9314 H   0  0  0  0  0  0  0  0  0  0  0  0
   -4.8814   -2.4476   -2.3368 H   0  0  0  0  0  0  0  0  0  0  0  0
   -5.6275   -2.0384    0.5541 H   0  0  0  0  0  0  0  0  0  0  0  0
   -6.4089   -3.0148   -0.7833 H   0  0  0  0  0  0  0  0  0  0  0  0
   -6.3820    0.0570   -0.4409 H   0  0  0  0  0  0  0  0  0  0  0  0
   -6.9195    0.2644   -2.8033 H   0  0  0  0  0  0  0  0  0  0  0  0
   -6.2120   -1.3121   -3.1036 H   0  0  0  0  0  0  0  0  0  0  0  0
   -4.4004    0.2684   -3.2428 H   0  0  0  0  0  0  0  0  0  0  0  0
   -4.9623    1.1446   -1.7883 H   0  0  0  0  0  0  0  0  0  0  0  0
  -10.9046   -1.5112   -0.7424 H   0  0  0  0  0  0  0  0  0  0  0  0
  -11.8976    1.1718    1.7586 H   0  0  0  0  0  0  0  0  0  0  0  0
  -10.3079    0.3979    1.6315 H   0  0  0  0  0  0  0  0  0  0  0  0
  -10.5664    2.1333    1.1222 H   0  0  0  0  0  0  0  0  0  0  0  0
  -12.7042   -1.0630    0.2588 H   0  0  0  0  0  0  0  0  0  0  0  0
  -13.2724    0.1008   -1.0689 H   0  0  0  0  0  0  0  0  0  0  0  0
  -13.2937    0.5833    0.7056 H   0  0  0  0  0  0  0  0  0  0  0  0
  1  2  1  0
  2  3  2  0
  3  4  1  0
  4  5  2  0
  5  6  1  0
  6  7  2  0
  7  8  1  0
  8  9  1  0
  9 10  1  0
 10 11  1  0
 11 12  1  0
 12 13  1  0
 13 14  1  0
 14 15  1  0
 15 16  1  0
 16 17  1  0
 15 18  1  0
 18 19  1  0
 19 20  1  0
 20 21  1  0
 21 22  1  0
 22 23  2  0
 23 24  1  0
 24 25  2  0
 25 26  1  0
 26 27  2  0
 20 28  1  0
 28 29  1  0
 29 30  2  0
 29 31  1  0
 31 32  1  0
 32 33  1  0
 33 34  1  0
 34 35  1  0
 35 36  1  0
 34 37  1  0
 37 38  1  0
 38 39  2  0
 38 40  1  0
 40 41  1  0
 41 42  1  0
 41 43  1  0
 41 44  1  0
 44 45  3  0
  4 46  1  0
 46 47  1  0
 46 48  1  0
 46 49  1  0
  7  2  1  0
 17 12  1  0
 27 22  1  0
 36 31  1  0
 27 15  1  0
  3 50  1  0
  5 51  1  0
  6 52  1  0
  9 53  1  0
  9 54  1  0
 10 55  1  0
 10 56  1  0
 11 57  1  0
 11 58  1  0
 13 59  1  0
 13 60  1  0
 14 61  1  0
 14 62  1  0
 16 63  1  0
 16 64  1  0
 17 65  1  0
 17 66  1  0
 18 67  1  0
 18 68  1  0
 19 69  1  0
 19 70  1  0
 21 71  1  0
 21 72  1  0
 23 73  1  0
 24 74  1  0
 25 75  1  0
 26 76  1  0
 28 77  1  0
 28 78  1  0
 32 79  1  0
 32 80  1  0
 33 81  1  0
 33 82  1  0
 34 83  1  0
 35 84  1  0
 35 85  1  0
 36 86  1  0
 36 87  1  0
 40 88  1  0
 42 89  1  0
 42 90  1  0
 42 91  1  0
 43 92  1  0
 43 93  1  0
 43 94  1  0
M  END
$$$$
[H]c1nc(N([H])S(=O)(=O)c2c([H])c([H])c(C([H])([H])[H])c([H])c2[H])nc([H])c1N1C([H])([H])C([H])([H])N(C(=O)c2c([H])c(Cl)c([H])c([H])c2Cl)C([H])([H])C1([H])[H]
     RDKit          3D

 54 57  0  0  0  0  0  0  0  0999 V2000
   -6.8295   -2.9764    0.4171 C   0  0  0  0  0  0  0  0  0  0  0  0
   -6.3893   -1.5618    0.5212 C   0  0  0  0  0  0  0  0  0  0  0  0
   -6.9009   -0.5835   -0.2985 C   0  0  0  0  0  0  0  0  0  0  0  0
   -6.4770    0.7205   -0.1844 C   0  0  0  0  0  0  0  0  0  0  0  0
   -5.5195    1.1180    0.7543 C   0  0  0  0  0  0  0  0  0  0  0  0
   -5.0071    0.1379    1.5759 C   0  0  0  0  0  0  0  0  0  0  0  0
   -5.4505   -1.1753    1.4426 C   0  0  0  0  0  0  0  0  0  0  0  0
   -5.0540    2.7872    0.8397 S   0  0  0  0  0  0  0  0  0  0  0  0
   -4.4961    3.0597    2.2175 O   0  0  0  0  0  0  0  0  0  0  0  0
   -6.3056    3.6084    0.6088 O   0  0  0  0  0  0  0  0  0  0  0  0
   -3.9077    3.1418   -0.3562 N   0  0  0  0  0  0  0  0  0  0  0  0
   -2.6390    2.5109   -0.4017 C   0  0  0  0  0  0  0  0  0  0  0  0
   -2.2255    1.5942    0.4765 N   0  0  0  0  0  0  0  0  0  0  0  0
   -1.0347    0.9783    0.4629 C   0  0  0  0  0  0  0  0  0  0  0  0
   -0.1158    1.2907   -0.5370 C   0  0  0  0  0  0  0  0  0  0  0  0
   -0.5470    2.2381   -1.4421 C   0  0  0  0  0  0  0  0  0  0  0  0
   -1.7496    2.8272   -1.3870 N   0  0  0  0  0  0  0  0  0  0  0  0
    1.1561    0.6857   -0.5951 N   0  0  0  0  0  0  0  0  0  0  0  0
    1.9409    0.7773   -1.7957 C   0  0  0  0  0  0  0  0  0  0  0  0
    3.2383    1.4762   -1.3399 C   0  0  0  0  0  0  0  0  0  0  0  0
    3.8756    0.4727   -0.5092 N   0  0  0  0  0  0  0  0  0  0  0  0
    3.1747    0.0132    0.6488 C   0  0  0  0  0  0  0  0  0  0  0  0
    1.6755   -0.0085    0.5364 C   0  0  0  0  0  0  0  0  0  0  0  0
    5.1600    0.0062   -0.8999 C   0  0  0  0  0  0  0  0  0  0  0  0
    5.7476    0.4418   -1.9369 O   0  0  0  0  0  0  0  0  0  0  0  0
    5.8919   -1.0020   -0.1409 C   0  0  0  0  0  0  0  0  0  0  0  0
    5.7516   -2.3483   -0.4015 C   0  0  0  0  0  0  0  0  0  0  0  0
    6.4469   -3.3113    0.3201 C   0  0  0  0  0  0  0  0  0  0  0  0
    6.2490   -5.0123   -0.0319 Cl  0  0  0  0  0  0  0  0  0  0  0  0
    7.3097   -2.9500    1.3314 C   0  0  0  0  0  0  0  0  0  0  0  0
    7.4570   -1.6065    1.5997 C   0  0  0  0  0  0  0  0  0  0  0  0
    6.7554   -0.6481    0.8707 C   0  0  0  0  0  0  0  0  0  0  0  0
    6.9651    1.0549    1.2366 Cl  0  0  0  0  0  0  0  0  0  0  0  0
   -7.2136   -3.1705   -0.6182 H   0  0  0  0  0  0  0  0  0  0  0  0
   -7.6139   -3.2162    1.1604 H   0  0  0  0  0  0  0  0  0  0  0  0
   -5.9375   -3.6298    0.5202 H   0  0  0  0  0  0  0  0  0  0  0  0
   -7.6467   -0.8507   -1.0403 H   0  0  0  0  0  0  0  0  0  0  0  0
   -6.8891    1.4941   -0.8413 H   0  0  0  0  0  0  0  0  0  0  0  0
   -4.2726    0.4015    2.3196 H   0  0  0  0  0  0  0  0  0  0  0  0
   -5.0207   -1.9193    2.1106 H   0  0  0  0  0  0  0  0  0  0  0  0
   -4.1264    3.8477   -1.0942 H   0  0  0  0  0  0  0  0  0  0  0  0
   -0.7582    0.2402    1.2018 H   0  0  0  0  0  0  0  0  0  0  0  0
    0.0820    2.5756   -2.2728 H   0  0  0  0  0  0  0  0  0  0  0  0
    1.4813    1.2519   -2.6512 H   0  0  0  0  0  0  0  0  0  0  0  0
    2.2434   -0.2805   -2.0811 H   0  0  0  0  0  0  0  0  0  0  0  0
    3.0036    2.3400   -0.6766 H   0  0  0  0  0  0  0  0  0  0  0  0
    3.8543    1.7810   -2.2049 H   0  0  0  0  0  0  0  0  0  0  0  0
    3.4232    0.7481    1.4709 H   0  0  0  0  0  0  0  0  0  0  0  0
    3.5801   -0.9631    1.0448 H   0  0  0  0  0  0  0  0  0  0  0  0
    1.2236    0.3431    1.5100 H   0  0  0  0  0  0  0  0  0  0  0  0
    1.3698   -1.0793    0.4518 H   0  0  0  0  0  0  0  0  0  0  0  0
    5.0746   -2.6550   -1.1968 H   0  0  0  0  0  0  0  0  0  0  0  0
    7.8633   -3.6991    1.9071 H   0  0  0  0  0  0  0  0  0  0  0  0
    8.1331   -1.3165    2.3926 H   0  0  0  0  0  0  0  0  0  0  0  0
  1  2  1  0
  2  3  2  0
  3  4  1  0
  4  5  2  0
  5  6  1  0
  6  7  2  0
  5  8  1  0
  8  9  2  0
  8 10  2  0
  8 11  1  0
 11 12  1  0
 12 13  2  0
 13 14  1  0
 14 15  2  0
 15 16  1  0
 16 17  2  0
 15 18  1  0
 18 19  1  0
 19 20  1  0
 20 21  1  0
 21 22  1  0
 22 23  1  0
 21 24  1  0
 24 25  2  0
 24 26  1  0
 26 27  2  0
 27 28  1  0
 28 29  1  0
 28 30  2  0
 30 31  1  0
 31 32  2  0
 32 33  1  0
  7  2  1  0
 17 12  1  0
 23 18  1  0
 32 26  1  0
  1 34  1  0
  1 35  1  0
  1 36  1  0
  3 37  1  0
  4 38  1  0
  6 39  1  0
  7 40  1  0
 11 41  1  0
 14 42  1  0
 16 43  1  0
 19 44  1  0
 19 45  1  0
 20 46  1  0
 20 47  1  0
 22 48  1  0
 22 49  1  0
 23 50  1  0
 23 51  1  0
 27 52  1  0
 30 53  1  0
 31 54  1  0
M  END
$$$$
[H]c1nc(N([H])C(=O)c2c([H])c([H])c(N3C([H])([H])C([H])([H])OC([H])([H])C3([H])[H])c([H])c2[H])nc(N([H])c2c([H])c([H])c([H])c([H])c2C(=O)N([H])C([H])([H])[H])c1Br
     RDKit          3D

 56 59  0  0  0  0  0  0  0  0999 V2000
   -9.4455   -0.3076    1.9894 C   0  0  0  0  0  0  0  0  0  0  0  0
   -8.4144   -0.9216    1.1314 N   0  0  0  0  0  0  0  0  0  0  0  0
   -7.1508   -0.2821    0.9053 C   0  0  0  0  0  0  0  0  0  0  0  0
   -7.0080    0.8364    1.4973 O   0  0  0  0  0  0  0  0  0  0  0  0
   -6.1634   -0.9088    0.0618 C   0  0  0  0  0  0  0  0  0  0  0  0
   -6.4270   -2.2097   -0.3701 C   0  0  0  0  0  0  0  0  0  0  0  0
   -5.4846   -2.9199   -1.1140 C   0  0  0  0  0  0  0  0  0  0  0  0
   -4.2923   -2.3293   -1.4201 C   0  0  0  0  0  0  0  0  0  0  0  0
   -4.0402   -1.0358   -0.9883 C   0  0  0  0  0  0  0  0  0  0  0  0
   -4.9470   -0.2943   -0.2486 C   0  0  0  0  0  0  0  0  0  0  0  0
   -4.6979    1.0553    0.0767 N   0  0  0  0  0  0  0  0  0  0  0  0
   -3.4509    1.7188    0.1641 C   0  0  0  0  0  0  0  0  0  0  0  0
   -2.2483    1.1169    0.0049 N   0  0  0  0  0  0  0  0  0  0  0  0
   -1.0782    1.7546    0.1197 C   0  0  0  0  0  0  0  0  0  0  0  0
    0.1694    1.1148   -0.0511 N   0  0  0  0  0  0  0  0  0  0  0  0
    1.3779    1.8146    0.0739 C   0  0  0  0  0  0  0  0  0  0  0  0
    1.3617    3.0646    0.3509 O   0  0  0  0  0  0  0  0  0  0  0  0
    2.6771    1.1845   -0.0986 C   0  0  0  0  0  0  0  0  0  0  0  0
    3.8200    1.9650   -0.1119 C   0  0  0  0  0  0  0  0  0  0  0  0
    5.0720    1.4268   -0.2721 C   0  0  0  0  0  0  0  0  0  0  0  0
    5.2549    0.0608   -0.4301 C   0  0  0  0  0  0  0  0  0  0  0  0
    4.1258   -0.7157   -0.4174 C   0  0  0  0  0  0  0  0  0  0  0  0
    2.8511   -0.1641   -0.2538 C   0  0  0  0  0  0  0  0  0  0  0  0
    6.5409   -0.5110   -0.6024 N   0  0  0  0  0  0  0  0  0  0  0  0
    6.7460   -1.9410   -0.6751 C   0  0  0  0  0  0  0  0  0  0  0  0
    8.1058   -2.2338   -0.0799 C   0  0  0  0  0  0  0  0  0  0  0  0
    9.1380   -1.5858   -0.6938 O   0  0  0  0  0  0  0  0  0  0  0  0
    8.7482   -0.5102   -1.4763 C   0  0  0  0  0  0  0  0  0  0  0  0
    7.7163    0.3242   -0.7191 C   0  0  0  0  0  0  0  0  0  0  0  0
   -1.0907    3.0746    0.4111 N   0  0  0  0  0  0  0  0  0  0  0  0
   -2.2629    3.7319    0.5817 C   0  0  0  0  0  0  0  0  0  0  0  0
   -3.4759    3.0919    0.4673 C   0  0  0  0  0  0  0  0  0  0  0  0
   -5.1258    4.0076    0.6988 Br  0  0  0  0  0  0  0  0  0  0  0  0
  -10.0362    0.3393    1.3191 H   0  0  0  0  0  0  0  0  0  0  0  0
   -8.9439    0.3294    2.7332 H   0  0  0  0  0  0  0  0  0  0  0  0
  -10.0327   -1.0871    2.4972 H   0  0  0  0  0  0  0  0  0  0  0  0
   -8.6831   -1.8153    0.7236 H   0  0  0  0  0  0  0  0  0  0  0  0
   -7.3519   -2.7212   -0.1528 H   0  0  0  0  0  0  0  0  0  0  0  0
   -5.7117   -3.9355   -1.4408 H   0  0  0  0  0  0  0  0  0  0  0  0
   -3.5386   -2.8741   -2.0038 H   0  0  0  0  0  0  0  0  0  0  0  0
   -3.0953   -0.6247   -1.2786 H   0  0  0  0  0  0  0  0  0  0  0  0
   -5.5363    1.6515    0.2300 H   0  0  0  0  0  0  0  0  0  0  0  0
    0.1628    0.1004   -0.2755 H   0  0  0  0  0  0  0  0  0  0  0  0
    3.7573    3.0454    0.0067 H   0  0  0  0  0  0  0  0  0  0  0  0
    5.9299    2.0757   -0.2735 H   0  0  0  0  0  0  0  0  0  0  0  0
    4.1630   -1.7867   -0.5335 H   0  0  0  0  0  0  0  0  0  0  0  0
    1.9701   -0.7948   -0.2442 H   0  0  0  0  0  0  0  0  0  0  0  0
    6.6013   -2.3608   -1.6762 H   0  0  0  0  0  0  0  0  0  0  0  0
    6.0130   -2.4076    0.0255 H   0  0  0  0  0  0  0  0  0  0  0  0
    8.2614   -3.3372   -0.2065 H   0  0  0  0  0  0  0  0  0  0  0  0
    8.0566   -2.0796    1.0260 H   0  0  0  0  0  0  0  0  0  0  0  0
    9.5799    0.0840   -1.8484 H   0  0  0  0  0  0  0  0  0  0  0  0
    8.2050   -0.9359   -2.3600 H   0  0  0  0  0  0  0  0  0  0  0  0
    8.0899    0.5882    0.2918 H   0  0  0  0  0  0  0  0  0  0  0  0
    7.5139    1.2722   -1.2546 H   0  0  0  0  0  0  0  0  0  0  0  0
   -2.2754    4.8021    0.8181 H   0  0  0  0  0  0  0  0  0  0  0  0
  1  2  1  0
  2  3  1  0
  3  4  2  0
  3  5  1  0
  5  6  2  0
  6  7  1  0
  7  8  2  0
  8  9  1  0
  9 10  2  0
 10 11  1  0
 11 12  1  0
 12 13  2  0
 13 14  1  0
 14 15  1  0
 15 16  1  0
 16 17  2  0
 16 18  1  0
 18 19  2  0
 19 20  1  0
 20 21  2  0
 21 22  1  0
 22 23  2  0
 21 24  1  0
 24 25  1  0
 25 26  1  0
 26 27  1  0
 27 28  1  0
 28 29  1  0
 14 30  2  0
 30 31  1  0
 31 32  2  0
 32 33  1  0
 10  5  1  0
 32 12  1  0
 23 18  1  0
 29 24  1  0
  1 34  1  0
  1 35  1  0
  1 36  1  0
  2 37  1  0
  6 38  1  0
  7 39  1  0
  8 40  1  0
  9 41  1  0
 11 42  1  0
 15 43  1  0
 19 44  1  0
 20 45  1  0
 22 46  1  0
 23 47  1  0
 25 48  1  0
 25 49  1  0
 26 50  1  0
 26 51  1  0
 28 52  1  0
 28 53  1  0
 29 54  1  0
 29 55  1  0
 31 56  1  0
M  END
$$$$
[H]c1c([H])c([H])c(C([H])([H])C#Cc2nc3c([H])c([H])c(C(=O)N([H])[H])c([H])c3s2)c([H])c1[H]
     RDKit          3D

 33 35  0  0  0  0  0  0  0  0999 V2000
   -7.3541   -0.1672    0.4798 N   0  0  0  0  0  0  0  0  0  0  0  0
   -6.5365    0.6295   -0.3555 C   0  0  0  0  0  0  0  0  0  0  0  0
   -7.0862    1.4860   -1.0912 O   0  0  0  0  0  0  0  0  0  0  0  0
   -5.0920    0.5121   -0.4098 C   0  0  0  0  0  0  0  0  0  0  0  0
   -4.3170    1.3068   -1.2383 C   0  0  0  0  0  0  0  0  0  0  0  0
   -2.9674    1.2233   -1.3135 C   0  0  0  0  0  0  0  0  0  0  0  0
   -2.2557    0.2947   -0.5290 C   0  0  0  0  0  0  0  0  0  0  0  0
   -0.9642    0.1237   -0.5161 N   0  0  0  0  0  0  0  0  0  0  0  0
   -0.4189   -0.7781    0.2625 C   0  0  0  0  0  0  0  0  0  0  0  0
   -1.7957   -1.4490    1.0438 S   0  0  0  0  0  0  0  0  0  0  0  0
   -3.0074   -0.4993    0.2963 C   0  0  0  0  0  0  0  0  0  0  0  0
   -4.4005   -0.4017    0.3633 C   0  0  0  0  0  0  0  0  0  0  0  0
    0.9866   -1.1284    0.4295 C   0  0  0  0  0  0  0  0  0  0  0  0
    2.1415   -1.4321    0.5820 C   0  0  0  0  0  0  0  0  0  0  0  0
    3.5515   -1.7992    0.7785 C   0  0  0  0  0  0  0  0  0  0  0  0
    4.4424   -0.7260    0.3193 C   0  0  0  0  0  0  0  0  0  0  0  0
    4.8851   -0.7052   -0.9757 C   0  0  0  0  0  0  0  0  0  0  0  0
    5.7350    0.3040   -1.4441 C   0  0  0  0  0  0  0  0  0  0  0  0
    6.1241    1.2892   -0.5691 C   0  0  0  0  0  0  0  0  0  0  0  0
    5.6908    1.2832    0.7285 C   0  0  0  0  0  0  0  0  0  0  0  0
    4.8380    0.2615    1.1795 C   0  0  0  0  0  0  0  0  0  0  0  0
   -7.6421    0.2245    1.4131 H   0  0  0  0  0  0  0  0  0  0  0  0
   -7.6999   -1.1156    0.2519 H   0  0  0  0  0  0  0  0  0  0  0  0
   -4.8504    2.0236   -1.8458 H   0  0  0  0  0  0  0  0  0  0  0  0
   -2.4455    1.8988   -2.0022 H   0  0  0  0  0  0  0  0  0  0  0  0
   -4.9169   -1.0600    1.0353 H   0  0  0  0  0  0  0  0  0  0  0  0
    3.7172   -2.7189    0.1666 H   0  0  0  0  0  0  0  0  0  0  0  0
    3.7239   -2.0910    1.8355 H   0  0  0  0  0  0  0  0  0  0  0  0
    4.5637   -1.4963   -1.6510 H   0  0  0  0  0  0  0  0  0  0  0  0
    6.0573    0.2830   -2.4623 H   0  0  0  0  0  0  0  0  0  0  0  0
    6.7812    2.0891   -0.8906 H   0  0  0  0  0  0  0  0  0  0  0  0
    6.0061    2.0654    1.4036 H   0  0  0  0  0  0  0  0  0  0  0  0
    4.5060    0.2697    2.2002 H   0  0  0  0  0  0  0  0  0  0  0  0
  1  2  1  0
  2  3  2  0
  2  4  1  0
  4  5  2  0
  5  6  1  0
  6  7  2  0
  7  8  1  0
  8  9  2  0
  9 10  1  0
 10 11  1  0
 11 12  2  0
  9 13  1  0
 13 14  3  0
 14 15  1  0
 15 16  1  0
 16 17  2  0
 17 18  1  0
 18 19  2  0
 19 20  1  0
 20 21  2  0
 12  4  1  0
 21 16  1  0
 11  7  1  0
  1 22  1  0
  1 23  1  0
  5 24  1  0
  6 25  1  0
 12 26  1  0
 15 27  1  0
 15 28  1  0
 17 29  1  0
 18 30  1  0
 19 31  1  0
 20 32  1  0
 21 33  1  0
M  END
$$$$
[H]OC(=O)C1(c2c([H])c([H])c([H])c([H])c2[H])C([H])([H])C([H])([H])N(C([H])([H])[C@@]2([H])N(C([H])([H])C(=O)N([H])[C@]([H])(C(=O)N([H])[C@@]([H])(C(=O)N([H])OC([H])([H])[H])C([H])([H])c3c([H])c([H])c([H])c([H])c3[H])C([H])([H])[H])C([H])([H])C([H])([H])C2([H])[H])C([H])([H])C1([H])[H]
     RDKit          3D

 86 89  0  0  0  0  0  0  0  0999 V2000
    9.8361    4.1162   -1.4781 C   0  0  0  0  0  0  0  0  0  0  0  0
    9.2679    3.2480   -0.5842 O   0  0  0  0  0  0  0  0  0  0  0  0
    8.2314    2.5256   -1.0716 N   0  0  0  0  0  0  0  0  0  0  0  0
    7.4174    1.8241   -0.1421 C   0  0  0  0  0  0  0  0  0  0  0  0
    7.6706    1.8929    1.0679 O   0  0  0  0  0  0  0  0  0  0  0  0
    6.2718    1.0187   -0.6176 C   0  0  1  0  0  0  0  0  0  0  0  0
    6.6315   -0.0718   -1.5828 C   0  0  0  0  0  0  0  0  0  0  0  0
    7.5247   -1.1214   -1.1540 C   0  0  0  0  0  0  0  0  0  0  0  0
    7.1086   -2.2966   -0.5462 C   0  0  0  0  0  0  0  0  0  0  0  0
    7.9932   -3.2726   -0.1799 C   0  0  0  0  0  0  0  0  0  0  0  0
    9.3567   -3.1369   -0.3979 C   0  0  0  0  0  0  0  0  0  0  0  0
    9.7889   -1.9788   -0.9997 C   0  0  0  0  0  0  0  0  0  0  0  0
    8.8739   -1.0055   -1.3612 C   0  0  0  0  0  0  0  0  0  0  0  0
    5.5035    0.5019    0.5090 N   0  0  0  0  0  0  0  0  0  0  0  0
    4.1126    0.6637    0.5027 C   0  0  0  0  0  0  0  0  0  0  0  0
    3.4925    1.2193   -0.4327 O   0  0  0  0  0  0  0  0  0  0  0  0
    3.2655    0.1618    1.6521 C   0  0  2  0  0  0  0  0  0  0  0  0
    3.7930   -1.1356    2.1504 C   0  0  0  0  0  0  0  0  0  0  0  0
    1.8947   -0.0284    1.1765 N   0  0  0  0  0  0  0  0  0  0  0  0
    0.8885    0.8739    1.4785 C   0  0  0  0  0  0  0  0  0  0  0  0
    1.1930    1.8899    2.2028 O   0  0  0  0  0  0  0  0  0  0  0  0
   -0.5007    0.7825    1.0497 C   0  0  0  0  0  0  0  0  0  0  0  0
   -0.8568   -0.3203    0.2016 N   0  0  0  0  0  0  0  0  0  0  0  0
   -0.3063   -0.1741   -1.1444 C   0  0  0  0  0  0  0  0  0  0  0  0
   -1.1346   -1.0956   -2.0186 C   0  0  0  0  0  0  0  0  0  0  0  0
   -2.4433   -1.1909   -1.2772 C   0  0  0  0  0  0  0  0  0  0  0  0
   -2.2746   -0.2722   -0.0760 C   0  0  1  0  0  0  0  0  0  0  0  0
   -3.1801   -0.6539    1.0521 C   0  0  0  0  0  0  0  0  0  0  0  0
   -4.5437   -0.5440    0.5563 N   0  0  0  0  0  0  0  0  0  0  0  0
   -4.9475    0.7753    0.2811 C   0  0  0  0  0  0  0  0  0  0  0  0
   -6.3898    1.0930    0.2519 C   0  0  0  0  0  0  0  0  0  0  0  0
   -7.2767   -0.1283    0.1912 C   0  0  0  0  0  0  0  0  0  0  0  0
   -6.8547   -1.0068    1.3383 C   0  0  0  0  0  0  0  0  0  0  0  0
   -5.4513   -1.4520    1.1273 C   0  0  0  0  0  0  0  0  0  0  0  0
   -7.0136   -0.8303   -1.0859 C   0  0  0  0  0  0  0  0  0  0  0  0
   -7.6778   -2.0001   -1.3657 O   0  0  0  0  0  0  0  0  0  0  0  0
   -6.1944   -0.3857   -1.9276 O   0  0  0  0  0  0  0  0  0  0  0  0
   -8.7086    0.2944    0.2838 C   0  0  0  0  0  0  0  0  0  0  0  0
   -9.4217    0.0968    1.4376 C   0  0  0  0  0  0  0  0  0  0  0  0
  -10.7595    0.5005    1.4948 C   0  0  0  0  0  0  0  0  0  0  0  0
  -11.3826    1.0992    0.4085 C   0  0  0  0  0  0  0  0  0  0  0  0
  -10.6309    1.2822   -0.7356 C   0  0  0  0  0  0  0  0  0  0  0  0
   -9.3214    0.8924   -0.8058 C   0  0  0  0  0  0  0  0  0  0  0  0
    9.9511    3.7301   -2.5091 H   0  0  0  0  0  0  0  0  0  0  0  0
    9.2583    5.0627   -1.5843 H   0  0  0  0  0  0  0  0  0  0  0  0
   10.8199    4.4295   -1.0518 H   0  0  0  0  0  0  0  0  0  0  0  0
    8.0375    2.4936   -2.1010 H   0  0  0  0  0  0  0  0  0  0  0  0
    5.5995    1.6910   -1.1817 H   0  0  0  0  0  0  0  0  0  0  0  0
    6.9814    0.4365   -2.5075 H   0  0  0  0  0  0  0  0  0  0  0  0
    5.6420   -0.5478   -1.8703 H   0  0  0  0  0  0  0  0  0  0  0  0
    6.0722   -2.4250   -0.3774 H   0  0  0  0  0  0  0  0  0  0  0  0
    7.6759   -4.2113    0.3035 H   0  0  0  0  0  0  0  0  0  0  0  0
   10.0637   -3.8961   -0.1192 H   0  0  0  0  0  0  0  0  0  0  0  0
   10.8502   -1.8408   -1.1825 H   0  0  0  0  0  0  0  0  0  0  0  0
    9.3352   -0.1265   -1.8443 H   0  0  0  0  0  0  0  0  0  0  0  0
    5.9396    0.0213    1.3163 H   0  0  0  0  0  0  0  0  0  0  0  0
    3.2254    0.9813    2.4092 H   0  0  0  0  0  0  0  0  0  0  0  0
    3.0229   -1.6092    2.7903 H   0  0  0  0  0  0  0  0  0  0  0  0
    4.7499   -1.0175    2.7021 H   0  0  0  0  0  0  0  0  0  0  0  0
    3.9846   -1.8064    1.3049 H   0  0  0  0  0  0  0  0  0  0  0  0
    1.7785   -0.9208    0.6179 H   0  0  0  0  0  0  0  0  0  0  0  0
   -0.8365    1.7363    0.5284 H   0  0  0  0  0  0  0  0  0  0  0  0
   -1.1869    0.7327    1.9565 H   0  0  0  0  0  0  0  0  0  0  0  0
   -0.5697    0.8574   -1.4859 H   0  0  0  0  0  0  0  0  0  0  0  0
    0.7217   -0.4348   -1.2771 H   0  0  0  0  0  0  0  0  0  0  0  0
   -1.2568   -0.7007   -3.0627 H   0  0  0  0  0  0  0  0  0  0  0  0
   -0.6734   -2.1003   -2.0893 H   0  0  0  0  0  0  0  0  0  0  0  0
   -3.2507   -0.8314   -1.9247 H   0  0  0  0  0  0  0  0  0  0  0  0
   -2.6467   -2.2267   -1.0034 H   0  0  0  0  0  0  0  0  0  0  0  0
   -2.4778    0.7544   -0.4549 H   0  0  0  0  0  0  0  0  0  0  0  0
   -3.0057   -1.7046    1.3487 H   0  0  0  0  0  0  0  0  0  0  0  0
   -3.0023   -0.0082    1.9104 H   0  0  0  0  0  0  0  0  0  0  0  0
   -4.4813    1.4353    1.0772 H   0  0  0  0  0  0  0  0  0  0  0  0
   -4.4601    1.0957   -0.6785 H   0  0  0  0  0  0  0  0  0  0  0  0
   -6.7371    1.7773    1.0598 H   0  0  0  0  0  0  0  0  0  0  0  0
   -6.6106    1.6558   -0.7080 H   0  0  0  0  0  0  0  0  0  0  0  0
   -7.4897   -1.9301    1.4433 H   0  0  0  0  0  0  0  0  0  0  0  0
   -6.9663   -0.4838    2.3121 H   0  0  0  0  0  0  0  0  0  0  0  0
   -5.0607   -1.7503    2.1477 H   0  0  0  0  0  0  0  0  0  0  0  0
   -5.4360   -2.4242    0.5606 H   0  0  0  0  0  0  0  0  0  0  0  0
   -7.8665   -2.6983   -0.6412 H   0  0  0  0  0  0  0  0  0  0  0  0
   -8.9961   -0.3657    2.3271 H   0  0  0  0  0  0  0  0  0  0  0  0
  -11.3077    0.3353    2.4179 H   0  0  0  0  0  0  0  0  0  0  0  0
  -12.4387    1.4119    0.4655 H   0  0  0  0  0  0  0  0  0  0  0  0
  -11.0874    1.7448   -1.6070 H   0  0  0  0  0  0  0  0  0  0  0  0
   -8.7104    1.0275   -1.7017 H   0  0  0  0  0  0  0  0  0  0  0  0
  1  2  1  0
  2  3  1  0
  3  4  1  0
  4  5  2  0
  4  6  1  0
  6  7  1  0
  7  8  1  0
  8  9  2  0
  9 10  1  0
 10 11  2  0
 11 12  1  0
 12 13  2  0
  6 14  1  0
 14 15  1  0
 15 16  2  0
 15 17  1  0
 17 18  1  0
 17 19  1  0
 19 20  1  0
 20 21  2  0
 20 22  1  0
 22 23  1  0
 23 24  1  0
 24 25  1  0
 25 26  1  0
 26 27  1  0
 27 28  1  0
 28 29  1  0
 29 30  1  0
 30 31  1  0
 31 32  1  0
 32 33  1  0
 33 34  1  0
 32 35  1  0
 35 36  1  0
 35 37  2  0
 32 38  1  0
 38 39  2  0
 39 40  1  0
 40 41  2  0
 41 42  1  0
 42 43  2  0
 13  8  1  0
 27 23  1  0
 34 29  1  0
 43 38  1  0
  1 44  1  0
  1 45  1  0
  1 46  1  0
  3 47  1  0
  6 48  1  6
  7 49  1  0
  7 50  1  0
  9 51  1  0
 10 52  1  0
 11 53  1  0
 12 54  1  0
 13 55  1  0
 14 56  1  0
 17 57  1  1
 18 58  1  0
 18 59  1  0
 18 60  1  0
 19 61  1  0
 22 62  1  0
 22 63  1  0
 24 64  1  0
 24 65  1  0
 25 66  1  0
 25 67  1  0
 26 68  1  0
 26 69  1  0
 27 70  1  6
 28 71  1  0
 28 72  1  0
 30 73  1  0
 30 74  1  0
 31 75  1  0
 31 76  1  0
 33 77  1  0
 33 78  1  0
 34 79  1  0
 34 80  1  0
 36 81  1  0
 39 82  1  0
 40 83  1  0
 41 84  1  0
 42 85  1  0
 43 86  1  0
M  END
$$$$
[H]c1c([H])c([H])c(S(=O)(=O)c2c([H])c([H])c(OC([H])([H])C([H])([H])C([H])([H])N(C([H])([H])[H])C([H])([H])[H])c([H])c2[H])c([H])c1[H]
     RDKit          3D

 43 44  0  0  0  0  0  0  0  0999 V2000
    6.5437    1.0588   -1.0007 C   0  0  0  0  0  0  0  0  0  0  0  0
    5.6940   -0.0331   -1.3520 N   0  0  0  0  0  0  0  0  0  0  0  0
    6.3746   -1.2828   -1.4915 C   0  0  0  0  0  0  0  0  0  0  0  0
    4.4435   -0.0918   -0.6699 C   0  0  0  0  0  0  0  0  0  0  0  0
    3.5481    1.0291   -1.0719 C   0  0  0  0  0  0  0  0  0  0  0  0
    2.2161    0.9844   -0.3600 C   0  0  0  0  0  0  0  0  0  0  0  0
    1.5073   -0.1943   -0.6106 O   0  0  0  0  0  0  0  0  0  0  0  0
    0.2643   -0.3592   -0.0173 C   0  0  0  0  0  0  0  0  0  0  0  0
   -0.4878   -1.4965   -0.2216 C   0  0  0  0  0  0  0  0  0  0  0  0
   -1.7211   -1.6590    0.3676 C   0  0  0  0  0  0  0  0  0  0  0  0
   -2.2371   -0.6797    1.1827 C   0  0  0  0  0  0  0  0  0  0  0  0
   -1.5158    0.4647    1.4078 C   0  0  0  0  0  0  0  0  0  0  0  0
   -0.2908    0.6082    0.8128 C   0  0  0  0  0  0  0  0  0  0  0  0
   -3.8017   -0.8606    1.9446 S   0  0  0  0  0  0  0  0  0  0  0  0
   -3.8095   -0.0971    3.2548 O   0  0  0  0  0  0  0  0  0  0  0  0
   -4.0608   -2.3206    2.2326 O   0  0  0  0  0  0  0  0  0  0  0  0
   -5.0764   -0.2462    0.9319 C   0  0  0  0  0  0  0  0  0  0  0  0
   -5.4794    1.0557    0.9925 C   0  0  0  0  0  0  0  0  0  0  0  0
   -6.4887    1.5240    0.1852 C   0  0  0  0  0  0  0  0  0  0  0  0
   -7.0869    0.6490   -0.6893 C   0  0  0  0  0  0  0  0  0  0  0  0
   -6.6824   -0.6719   -0.7551 C   0  0  0  0  0  0  0  0  0  0  0  0
   -5.6784   -1.1297    0.0511 C   0  0  0  0  0  0  0  0  0  0  0  0
    6.4606    1.2215    0.1040 H   0  0  0  0  0  0  0  0  0  0  0  0
    6.3125    2.0097   -1.4846 H   0  0  0  0  0  0  0  0  0  0  0  0
    7.6165    0.7552   -1.1770 H   0  0  0  0  0  0  0  0  0  0  0  0
    6.7031   -1.4127   -2.5638 H   0  0  0  0  0  0  0  0  0  0  0  0
    5.7676   -2.1469   -1.1518 H   0  0  0  0  0  0  0  0  0  0  0  0
    7.2949   -1.2370   -0.8709 H   0  0  0  0  0  0  0  0  0  0  0  0
    4.6307   -0.0196    0.4119 H   0  0  0  0  0  0  0  0  0  0  0  0
    3.9461   -1.0433   -0.9611 H   0  0  0  0  0  0  0  0  0  0  0  0
    3.3254    1.0546   -2.1588 H   0  0  0  0  0  0  0  0  0  0  0  0
    4.0168    2.0123   -0.8353 H   0  0  0  0  0  0  0  0  0  0  0  0
    1.5560    1.8263   -0.6880 H   0  0  0  0  0  0  0  0  0  0  0  0
    2.3226    1.0909    0.7407 H   0  0  0  0  0  0  0  0  0  0  0  0
   -0.0670   -2.2642   -0.8698 H   0  0  0  0  0  0  0  0  0  0  0  0
   -2.2866   -2.5828    0.1765 H   0  0  0  0  0  0  0  0  0  0  0  0
   -1.9195    1.2274    2.0437 H   0  0  0  0  0  0  0  0  0  0  0  0
    0.2836    1.5136    0.9888 H   0  0  0  0  0  0  0  0  0  0  0  0
   -4.9649    1.7071    1.7096 H   0  0  0  0  0  0  0  0  0  0  0  0
   -6.7697    2.5543    0.2691 H   0  0  0  0  0  0  0  0  0  0  0  0
   -7.8807    0.9642   -1.3431 H   0  0  0  0  0  0  0  0  0  0  0  0
   -7.1690   -1.3316   -1.4487 H   0  0  0  0  0  0  0  0  0  0  0  0
   -5.3536   -2.1502    0.0127 H   0  0  0  0  0  0  0  0  0  0  0  0
  1  2  1  0
  2  3  1  0
  2  4  1  0
  4  5  1  0
  5  6  1  0
  6  7  1  0
  7  8  1  0
  8  9  2  0
  9 10  1  0
 10 11  2  0
 11 12  1  0
 12 13  2  0
 11 14  1  0
 14 15  2  0
 14 16  2  0
 14 17  1  0
 17 18  2  0
 18 19  1  0
 19 20  2  0
 20 21  1  0
 21 22  2  0
 13  8  1  0
 22 17  1  0
  1 23  1  0
  1 24  1  0
  1 25  1  0
  3 26  1  0
  3 27  1  0
  3 28  1  0
  4 29  1  0
  4 30  1  0
  5 31  1  0
  5 32  1  0
  6 33  1  0
  6 34  1  0
  9 35  1  0
 10 36  1  0
 12 37  1  0
 13 38  1  0
 18 39  1  0
 19 40  1  0
 20 41  1  0
 21 42  1  0
 22 43  1  0
M  END
$$$$
[H]OC1([H])C([H])([H])C([H])([H])N(C2([H])C([H])([H])C([H])([H])N(C(=O)N([H])N=C(C(=O)N3C([H])=C(N([H])C(=O)N([H])C([H])([H])C([H])([H])C([H])([H])C([H])([H])N([H])C(=O)N([H])C([H])([H])C([H])([H])[H])C([H])([H])C3([H])[H])C([H])([H])C3([H])c4c([H])c([H])c(OC([H])([H])[H])c([H])c4OC3([H])[H])C([H])([H])C2([H])[H])C([H])([H])C1([H])[H]
     RDKit          3D

104108  0  0  0  0  0  0  0  0999 V2000
   -1.1519  -10.2527   -0.1434 C   0  0  0  0  0  0  0  0  0  0  0  0
   -0.8795   -8.9846    0.1407 O   0  0  0  0  0  0  0  0  0  0  0  0
   -1.0812   -7.6937    0.0145 C   0  0  0  0  0  0  0  0  0  0  0  0
   -0.2710   -6.8383    0.7555 C   0  0  0  0  0  0  0  0  0  0  0  0
   -0.4198   -5.4999    0.6796 C   0  0  0  0  0  0  0  0  0  0  0  0
   -1.4171   -5.0028   -0.1703 C   0  0  0  0  0  0  0  0  0  0  0  0
   -1.7404   -3.5502   -0.4405 C   0  0  0  0  0  0  0  0  0  0  0  0
   -0.6744   -3.1117   -1.3595 C   0  0  0  0  0  0  0  0  0  0  0  0
   -0.7799   -1.4938   -1.5932 C   0  0  0  0  0  0  0  0  0  0  0  0
   -1.4970   -1.0886   -0.7581 N   0  0  0  0  0  0  0  0  0  0  0  0
   -2.1474   -0.0084   -0.1872 N   0  0  0  0  0  0  0  0  0  0  0  0
   -2.4895    1.1238    0.3031 C   0  0  0  0  0  0  0  0  0  0  0  0
   -1.6957    2.1521    0.4967 O   0  0  0  0  0  0  0  0  0  0  0  0
   -3.8515    1.4602    0.7144 N   0  0  0  0  0  0  0  0  0  0  0  0
   -4.9765    0.5701    0.5254 C   0  0  0  0  0  0  0  0  0  0  0  0
   -6.0637    1.4793   -0.1164 C   0  0  0  0  0  0  0  0  0  0  0  0
   -6.6100    2.4492    0.9195 C   0  0  0  0  0  0  0  0  0  0  0  0
   -5.5248    2.6687    1.9400 C   0  0  0  0  0  0  0  0  0  0  0  0
   -4.1409    2.7219    1.3294 C   0  0  0  0  0  0  0  0  0  0  0  0
   -6.9555    3.6821    0.2402 N   0  0  0  0  0  0  0  0  0  0  0  0
   -7.9446    3.4952   -0.7842 C   0  0  0  0  0  0  0  0  0  0  0  0
   -9.3094    3.3014   -0.1839 C   0  0  0  0  0  0  0  0  0  0  0  0
   -9.7370    4.6561    0.3846 C   0  0  0  0  0  0  0  0  0  0  0  0
  -10.5236    5.2969   -0.5561 O   0  0  0  0  0  0  0  0  0  0  0  0
   -8.5238    5.5103    0.6499 C   0  0  0  0  0  0  0  0  0  0  0  0
   -7.3878    4.6647    1.2207 C   0  0  0  0  0  0  0  0  0  0  0  0
    0.2945   -1.2159   -2.4579 C   0  0  0  0  0  0  0  0  0  0  0  0
    0.3517   -2.0498   -3.5544 O   0  0  0  0  0  0  0  0  0  0  0  0
    1.3423   -0.3445   -2.5237 N   0  0  0  0  0  0  0  0  0  0  0  0
    2.2610    0.0822   -1.4871 C   0  0  0  0  0  0  0  0  0  0  0  0
    3.4480    0.2726   -2.0388 C   0  0  0  0  0  0  0  0  0  0  0  0
    3.2646   -0.0196   -3.5744 C   0  0  0  0  0  0  0  0  0  0  0  0
    1.8254    0.3893   -3.7125 C   0  0  0  0  0  0  0  0  0  0  0  0
    4.7615    0.3908   -1.5404 N   0  0  0  0  0  0  0  0  0  0  0  0
    5.2000    0.0327   -0.2840 C   0  0  0  0  0  0  0  0  0  0  0  0
    4.4622   -0.3452    0.6628 O   0  0  0  0  0  0  0  0  0  0  0  0
    6.6212    0.0648   -0.0314 N   0  0  0  0  0  0  0  0  0  0  0  0
    7.1242   -0.3028    1.2738 C   0  0  0  0  0  0  0  0  0  0  0  0
    8.6436   -0.5040    1.1465 C   0  0  0  0  0  0  0  0  0  0  0  0
    9.3148   -0.6384    2.4278 C   0  0  0  0  0  0  0  0  0  0  0  0
    9.6593    0.5272    3.2909 C   0  0  0  0  0  0  0  0  0  0  0  0
    8.6477    1.6008    3.1604 N   0  0  0  0  0  0  0  0  0  0  0  0
    8.7968    2.4398    2.0707 C   0  0  0  0  0  0  0  0  0  0  0  0
    9.8501    2.4329    1.3469 O   0  0  0  0  0  0  0  0  0  0  0  0
    7.8179    3.3905    1.6010 N   0  0  0  0  0  0  0  0  0  0  0  0
    8.0585    4.2189    0.4787 C   0  0  0  0  0  0  0  0  0  0  0  0
    8.2375    3.5905   -0.8530 C   0  0  0  0  0  0  0  0  0  0  0  0
   -3.1011   -3.6876   -1.0807 C   0  0  0  0  0  0  0  0  0  0  0  0
   -3.1008   -4.9679   -1.6453 O   0  0  0  0  0  0  0  0  0  0  0  0
   -2.2053   -5.7868   -0.8909 C   0  0  0  0  0  0  0  0  0  0  0  0
   -2.0896   -7.1604   -0.8411 C   0  0  0  0  0  0  0  0  0  0  0  0
   -2.1234  -10.3982   -0.6865 H   0  0  0  0  0  0  0  0  0  0  0  0
   -1.1020  -10.9593    0.7390 H   0  0  0  0  0  0  0  0  0  0  0  0
   -0.3715  -10.6852   -0.8548 H   0  0  0  0  0  0  0  0  0  0  0  0
    0.4994   -7.2840    1.4350 H   0  0  0  0  0  0  0  0  0  0  0  0
    0.1969   -4.8197    1.2643 H   0  0  0  0  0  0  0  0  0  0  0  0
   -1.7684   -2.9698    0.4940 H   0  0  0  0  0  0  0  0  0  0  0  0
    0.2958   -3.2019   -0.8582 H   0  0  0  0  0  0  0  0  0  0  0  0
   -0.7092   -3.5644   -2.3135 H   0  0  0  0  0  0  0  0  0  0  0  0
   -3.1829   -0.7438    0.0552 H   0  0  0  0  0  0  0  0  0  0  0  0
   -5.3778    0.1313    1.4328 H   0  0  0  0  0  0  0  0  0  0  0  0
   -4.8095   -0.1681   -0.2474 H   0  0  0  0  0  0  0  0  0  0  0  0
   -5.5557    2.0334   -0.9232 H   0  0  0  0  0  0  0  0  0  0  0  0
   -6.8662    0.7895   -0.4530 H   0  0  0  0  0  0  0  0  0  0  0  0
   -7.4765    2.0218    1.4644 H   0  0  0  0  0  0  0  0  0  0  0  0
   -5.5373    1.7843    2.6181 H   0  0  0  0  0  0  0  0  0  0  0  0
   -5.7338    3.5597    2.5762 H   0  0  0  0  0  0  0  0  0  0  0  0
   -4.0146    3.6093    0.6645 H   0  0  0  0  0  0  0  0  0  0  0  0
   -3.4534    2.8809    2.2251 H   0  0  0  0  0  0  0  0  0  0  0  0
   -7.9792    4.3730   -1.4870 H   0  0  0  0  0  0  0  0  0  0  0  0
   -7.7253    2.6008   -1.3980 H   0  0  0  0  0  0  0  0  0  0  0  0
   -9.2666    2.5579    0.6143 H   0  0  0  0  0  0  0  0  0  0  0  0
  -10.0253    3.0332   -0.9984 H   0  0  0  0  0  0  0  0  0  0  0  0
  -10.3425    4.4833    1.2723 H   0  0  0  0  0  0  0  0  0  0  0  0
  -10.1519    5.3183   -1.4708 H   0  0  0  0  0  0  0  0  0  0  0  0
   -8.8162    6.2134    1.4530 H   0  0  0  0  0  0  0  0  0  0  0  0
   -8.1980    6.1133   -0.2152 H   0  0  0  0  0  0  0  0  0  0  0  0
   -6.5364    5.3299    1.3847 H   0  0  0  0  0  0  0  0  0  0  0  0
   -7.6899    4.2194    2.1790 H   0  0  0  0  0  0  0  0  0  0  0  0
    2.0238    0.1975   -0.4570 H   0  0  0  0  0  0  0  0  0  0  0  0
    3.3179   -1.1143   -3.6194 H   0  0  0  0  0  0  0  0  0  0  0  0
    3.9892    0.5272   -4.1435 H   0  0  0  0  0  0  0  0  0  0  0  0
    1.3313   -0.0502   -4.5878 H   0  0  0  0  0  0  0  0  0  0  0  0
    1.6204    1.4563   -3.5483 H   0  0  0  0  0  0  0  0  0  0  0  0
    5.4678    0.8274   -2.2319 H   0  0  0  0  0  0  0  0  0  0  0  0
    7.3062    0.3453   -0.7588 H   0  0  0  0  0  0  0  0  0  0  0  0
    6.8575    0.4008    2.0065 H   0  0  0  0  0  0  0  0  0  0  0  0
    6.6490   -1.2983    1.5727 H   0  0  0  0  0  0  0  0  0  0  0  0
    9.0347    0.2148    0.4485 H   0  0  0  0  0  0  0  0  0  0  0  0
    8.7592   -1.5651    0.6426 H   0  0  0  0  0  0  0  0  0  0  0  0
   10.2635   -1.2416    2.2809 H   0  0  0  0  0  0  0  0  0  0  0  0
    8.6948   -1.3205    3.1299 H   0  0  0  0  0  0  0  0  0  0  0  0
    9.9024    0.3291    4.3276 H   0  0  0  0  0  0  0  0  0  0  0  0
   10.5808    0.9961    2.8008 H   0  0  0  0  0  0  0  0  0  0  0  0
    7.9028    1.6373    3.8799 H   0  0  0  0  0  0  0  0  0  0  0  0
    6.9128    3.4088    2.1494 H   0  0  0  0  0  0  0  0  0  0  0  0
    9.0534    4.7587    0.7518 H   0  0  0  0  0  0  0  0  0  0  0  0
    7.3409    5.0871    0.4489 H   0  0  0  0  0  0  0  0  0  0  0  0
    8.9101    4.2828   -1.4591 H   0  0  0  0  0  0  0  0  0  0  0  0
    8.7878    2.6318   -0.7617 H   0  0  0  0  0  0  0  0  0  0  0  0
    7.2900    3.4367   -1.4059 H   0  0  0  0  0  0  0  0  0  0  0  0
   -3.3481   -2.8901   -1.8014 H   0  0  0  0  0  0  0  0  0  0  0  0
   -3.8208   -3.6353   -0.2065 H   0  0  0  0  0  0  0  0  0  0  0  0
   -2.6977   -7.7979   -1.4354 H   0  0  0  0  0  0  0  0  0  0  0  0
  1  2  1  0
  2  3  1  0
  3  4  2  0
  4  5  1  0
  5  6  2  0
  6  7  1  0
  7  8  1  0
  8  9  1  0
  9 10  2  3
 10 11  1  0
 11 12  1  0
 12 13  2  0
 12 14  1  0
 14 15  1  0
 15 16  1  0
 16 17  1  0
 17 18  1  0
 18 19  1  0
 17 20  1  0
 20 21  1  0
 21 22  1  0
 22 23  1  0
 23 24  1  0
 23 25  1  0
 25 26  1  0
  9 27  1  0
 27 28  2  0
 27 29  1  0
 29 30  1  0
 30 31  2  0
 31 32  1  0
 32 33  1  0
 31 34  1  0
 34 35  1  0
 35 36  2  0
 35 37  1  0
 37 38  1  0
 38 39  1  0
 39 40  1  0
 40 41  1  0
 41 42  1  0
 42 43  1  0
 43 44  2  0
 43 45  1  0
 45 46  1  0
 46 47  1  0
  7 48  1  0
 48 49  1  0
 49 50  1  0
 50 51  2  0
 51  3  1  0
 50  6  1  0
 19 14  1  0
 26 20  1  0
 33 29  1  0
  1 52  1  0
  1 53  1  0
  1 54  1  0
  4 55  1  0
  5 56  1  0
  7 57  1  0
  8 58  1  0
  8 59  1  0
 11 60  1  0
 15 61  1  0
 15 62  1  0
 16 63  1  0
 16 64  1  0
 17 65  1  0
 18 66  1  0
 18 67  1  0
 19 68  1  0
 19 69  1  0
 21 70  1  0
 21 71  1  0
 22 72  1  0
 22 73  1  0
 23 74  1  0
 24 75  1  0
 25 76  1  0
 25 77  1  0
 26 78  1  0
 26 79  1  0
 30 80  1  0
 32 81  1  0
 32 82  1  0
 33 83  1  0
 33 84  1  0
 34 85  1  0
 37 86  1  0
 38 87  1  0
 38 88  1  0
 39 89  1  0
 39 90  1  0
 40 91  1  0
 40 92  1  0
 41 93  1  0
 41 94  1  0
 42 95  1  0
 45 96  1  0
 46 97  1  0
 46 98  1  0
 47 99  1  0
 47100  1  0
 47101  1  0
 48102  1  0
 48103  1  0
 51104  1  0
M  END
$$$$
[H]OC([H])([H])c1c([H])c(-c2c(OC([H])([H])C3([H])C([H])([H])C([H])([H])N(C(=O)C([H])([H])[H])C([H])([H])C3([H])[H])c([H])c([H])c3nc([H])c([H])nc23)c([H])n(C([H])([H])[H])c1=O
     RDKit          3D

 57 60  0  0  0  0  0  0  0  0999 V2000
    7.2634   -0.5164    0.6615 C   0  0  0  0  0  0  0  0  0  0  0  0
    6.5555    0.4667   -0.1933 C   0  0  0  0  0  0  0  0  0  0  0  0
    7.2732    1.3628   -0.7578 O   0  0  0  0  0  0  0  0  0  0  0  0
    5.1580    0.4531   -0.3981 N   0  0  0  0  0  0  0  0  0  0  0  0
    4.3573   -0.5619    0.2553 C   0  0  0  0  0  0  0  0  0  0  0  0
    3.1508    0.0785    0.8347 C   0  0  0  0  0  0  0  0  0  0  0  0
    2.4091    0.9891   -0.0067 C   0  0  0  0  0  0  0  0  0  0  0  0
    1.2859    0.5227   -0.8888 C   0  0  0  0  0  0  0  0  0  0  0  0
    0.2039   -0.0745   -0.4591 O   0  0  0  0  0  0  0  0  0  0  0  0
   -0.4389   -1.0930    0.0757 C   0  0  0  0  0  0  0  0  0  0  0  0
    0.2301   -2.3001    0.4067 C   0  0  0  0  0  0  0  0  0  0  0  0
   -0.3767   -3.3855    0.9543 C   0  0  0  0  0  0  0  0  0  0  0  0
   -1.7213   -3.3324    1.2076 C   0  0  0  0  0  0  0  0  0  0  0  0
   -2.3630   -4.4091    1.7304 N   0  0  0  0  0  0  0  0  0  0  0  0
   -3.7101   -4.3526    1.9580 C   0  0  0  0  0  0  0  0  0  0  0  0
   -4.3882   -3.2065    1.6489 C   0  0  0  0  0  0  0  0  0  0  0  0
   -3.7200   -2.1608    1.1300 N   0  0  0  0  0  0  0  0  0  0  0  0
   -2.4109   -2.1885    0.9030 C   0  0  0  0  0  0  0  0  0  0  0  0
   -1.7872   -1.0505    0.3323 C   0  0  0  0  0  0  0  0  0  0  0  0
   -2.6377    0.0887    0.0024 C   0  0  0  0  0  0  0  0  0  0  0  0
   -3.7573   -0.1149   -0.8025 C   0  0  0  0  0  0  0  0  0  0  0  0
   -4.6286    0.8730   -1.1977 C   0  0  0  0  0  0  0  0  0  0  0  0
   -5.7977    0.6343   -2.0841 C   0  0  0  0  0  0  0  0  0  0  0  0
   -6.9554    1.1264   -1.4657 O   0  0  0  0  0  0  0  0  0  0  0  0
   -4.3125    2.1582   -0.7296 C   0  0  0  0  0  0  0  0  0  0  0  0
   -5.1327    3.0743   -1.1089 O   0  0  0  0  0  0  0  0  0  0  0  0
   -3.2598    2.4019    0.0357 N   0  0  0  0  0  0  0  0  0  0  0  0
   -3.0167    3.7404    0.4820 C   0  0  0  0  0  0  0  0  0  0  0  0
   -2.4184    1.3915    0.4104 C   0  0  0  0  0  0  0  0  0  0  0  0
    3.2769    1.9785   -0.7924 C   0  0  0  0  0  0  0  0  0  0  0  0
    4.5713    1.4448   -1.2622 C   0  0  0  0  0  0  0  0  0  0  0  0
    6.8812   -0.5422    1.7167 H   0  0  0  0  0  0  0  0  0  0  0  0
    7.2652   -1.5463    0.2536 H   0  0  0  0  0  0  0  0  0  0  0  0
    8.3567   -0.2274    0.7530 H   0  0  0  0  0  0  0  0  0  0  0  0
    4.9364   -0.9930    1.1384 H   0  0  0  0  0  0  0  0  0  0  0  0
    4.2131   -1.3969   -0.4160 H   0  0  0  0  0  0  0  0  0  0  0  0
    2.4871   -0.6722    1.3068 H   0  0  0  0  0  0  0  0  0  0  0  0
    3.5928    0.7167    1.7094 H   0  0  0  0  0  0  0  0  0  0  0  0
    1.8568    1.7056    0.7277 H   0  0  0  0  0  0  0  0  0  0  0  0
    0.9800    1.4860   -1.4547 H   0  0  0  0  0  0  0  0  0  0  0  0
    1.7317   -0.0517   -1.7834 H   0  0  0  0  0  0  0  0  0  0  0  0
    1.2797   -2.3402    0.1895 H   0  0  0  0  0  0  0  0  0  0  0  0
    0.2374   -4.2875    1.1672 H   0  0  0  0  0  0  0  0  0  0  0  0
   -4.2402   -5.2368    2.3883 H   0  0  0  0  0  0  0  0  0  0  0  0
   -5.4719   -3.1937    1.8235 H   0  0  0  0  0  0  0  0  0  0  0  0
   -3.9481   -1.1230   -1.1585 H   0  0  0  0  0  0  0  0  0  0  0  0
   -5.9710   -0.5286   -2.0276 H   0  0  0  0  0  0  0  0  0  0  0  0
   -5.6654    0.8337   -3.1288 H   0  0  0  0  0  0  0  0  0  0  0  0
   -6.8249    1.1149   -0.4887 H   0  0  0  0  0  0  0  0  0  0  0  0
   -2.4189    4.2754   -0.2832 H   0  0  0  0  0  0  0  0  0  0  0  0
   -3.9997    4.2695    0.5517 H   0  0  0  0  0  0  0  0  0  0  0  0
   -2.5318    3.6982    1.4594 H   0  0  0  0  0  0  0  0  0  0  0  0
   -1.5699    1.5894    1.0339 H   0  0  0  0  0  0  0  0  0  0  0  0
    3.4866    2.8742   -0.1871 H   0  0  0  0  0  0  0  0  0  0  0  0
    2.6496    2.3207   -1.6408 H   0  0  0  0  0  0  0  0  0  0  0  0
    4.4512    0.9636   -2.2598 H   0  0  0  0  0  0  0  0  0  0  0  0
    5.3342    2.2532   -1.4059 H   0  0  0  0  0  0  0  0  0  0  0  0
  1  2  1  0
  2  3  2  0
  2  4  1  0
  4  5  1  0
  5  6  1  0
  6  7  1  0
  7  8  1  0
  8  9  1  0
  9 10  1  0
 10 11  2  0
 11 12  1  0
 12 13  2  0
 13 14  1  0
 14 15  2  0
 15 16  1  0
 16 17  2  0
 17 18  1  0
 18 19  2  0
 19 20  1  0
 20 21  1  0
 21 22  2  0
 22 23  1  0
 23 24  1  0
 22 25  1  0
 25 26  2  0
 25 27  1  0
 27 28  1  0
 27 29  1  0
  7 30  1  0
 30 31  1  0
 31  4  1  0
 19 10  1  0
 29 20  2  0
 18 13  1  0
  1 32  1  0
  1 33  1  0
  1 34  1  0
  5 35  1  0
  5 36  1  0
  6 37  1  0
  6 38  1  0
  7 39  1  0
  8 40  1  0
  8 41  1  0
 11 42  1  0
 12 43  1  0
 15 44  1  0
 16 45  1  0
 21 46  1  0
 23 47  1  0
 23 48  1  0
 24 49  1  0
 28 50  1  0
 28 51  1  0
 28 52  1  0
 29 53  1  0
 30 54  1  0
 30 55  1  0
 31 56  1  0
 31 57  1  0
M  END
$$$$
[H]c1c([H])c([H])c(-n2c(SC([H])([H])C(=O)N([H])C([H])([H])C([H])([H])C([H])([H])N(C([H])([H])[H])C([H])([H])[H])nnc2C([H])([H])[H])c([H])c1[H]
     RDKit          3D

 46 47  0  0  0  0  0  0  0  0999 V2000
    7.2495    0.2362   -0.2239 C   0  0  0  0  0  0  0  0  0  0  0  0
    5.7968   -0.0074   -0.1676 N   0  0  0  0  0  0  0  0  0  0  0  0
    5.6195   -1.3916    0.2453 C   0  0  0  0  0  0  0  0  0  0  0  0
    5.2153    0.2174   -1.4708 C   0  0  0  0  0  0  0  0  0  0  0  0
    3.6822    0.1537   -1.3079 C   0  0  0  0  0  0  0  0  0  0  0  0
    3.2606    1.2488   -0.3571 C   0  0  0  0  0  0  0  0  0  0  0  0
    1.8697    1.2844   -0.0388 N   0  0  0  0  0  0  0  0  0  0  0  0
    0.8094    1.4280   -0.9283 C   0  0  0  0  0  0  0  0  0  0  0  0
    1.0841    1.5209   -2.1703 O   0  0  0  0  0  0  0  0  0  0  0  0
   -0.6023    1.4886   -0.4734 C   0  0  0  0  0  0  0  0  0  0  0  0
   -1.5614    0.0409   -1.0025 S   0  0  0  0  0  0  0  0  0  0  0  0
   -2.1474   -0.8406    0.4408 C   0  0  0  0  0  0  0  0  0  0  0  0
   -1.5063   -1.6926    1.2430 N   0  0  0  0  0  0  0  0  0  0  0  0
   -2.3306   -2.1908    2.1832 N   0  0  0  0  0  0  0  0  0  0  0  0
   -3.5230   -1.6339    1.9613 C   0  0  0  0  0  0  0  0  0  0  0  0
   -4.7908   -1.8422    2.7198 C   0  0  0  0  0  0  0  0  0  0  0  0
   -3.4057   -0.8007    0.8806 N   0  0  0  0  0  0  0  0  0  0  0  0
   -4.5107   -0.1059    0.3234 C   0  0  0  0  0  0  0  0  0  0  0  0
   -5.1668    0.9518    0.8993 C   0  0  0  0  0  0  0  0  0  0  0  0
   -6.2771    1.5427    0.2962 C   0  0  0  0  0  0  0  0  0  0  0  0
   -6.7647    1.0834   -0.9107 C   0  0  0  0  0  0  0  0  0  0  0  0
   -6.1168    0.0198   -1.5090 C   0  0  0  0  0  0  0  0  0  0  0  0
   -5.0351   -0.5467   -0.9123 C   0  0  0  0  0  0  0  0  0  0  0  0
    7.3878    1.0235    0.5899 H   0  0  0  0  0  0  0  0  0  0  0  0
    7.8078   -0.6797    0.0410 H   0  0  0  0  0  0  0  0  0  0  0  0
    7.5331    0.6122   -1.2194 H   0  0  0  0  0  0  0  0  0  0  0  0
    4.9074   -1.9483   -0.3495 H   0  0  0  0  0  0  0  0  0  0  0  0
    6.5946   -1.9238    0.1317 H   0  0  0  0  0  0  0  0  0  0  0  0
    5.3694   -1.3848    1.3106 H   0  0  0  0  0  0  0  0  0  0  0  0
    5.4616   -0.5930   -2.1547 H   0  0  0  0  0  0  0  0  0  0  0  0
    5.5135    1.1939   -1.8785 H   0  0  0  0  0  0  0  0  0  0  0  0
    3.4296   -0.8463   -0.9204 H   0  0  0  0  0  0  0  0  0  0  0  0
    3.2355    0.2827   -2.3176 H   0  0  0  0  0  0  0  0  0  0  0  0
    3.9118    1.2105    0.5436 H   0  0  0  0  0  0  0  0  0  0  0  0
    3.5058    2.2182   -0.9068 H   0  0  0  0  0  0  0  0  0  0  0  0
    1.6381    1.1998    0.9993 H   0  0  0  0  0  0  0  0  0  0  0  0
   -0.5130    1.3832    0.6794 H   0  0  0  0  0  0  0  0  0  0  0  0
   -1.1232    2.4146   -0.6144 H   0  0  0  0  0  0  0  0  0  0  0  0
   -4.5875   -2.4472    3.6539 H   0  0  0  0  0  0  0  0  0  0  0  0
   -5.5031   -2.4161    2.1170 H   0  0  0  0  0  0  0  0  0  0  0  0
   -5.2109   -0.8910    3.0859 H   0  0  0  0  0  0  0  0  0  0  0  0
   -4.7826    1.3224    1.8465 H   0  0  0  0  0  0  0  0  0  0  0  0
   -6.7619    2.3904    0.7967 H   0  0  0  0  0  0  0  0  0  0  0  0
   -7.6102    1.5717   -1.3227 H   0  0  0  0  0  0  0  0  0  0  0  0
   -6.5255   -0.3072   -2.4495 H   0  0  0  0  0  0  0  0  0  0  0  0
   -4.5267   -1.3808   -1.3821 H   0  0  0  0  0  0  0  0  0  0  0  0
  1  2  1  0
  2  3  1  0
  2  4  1  0
  4  5  1  0
  5  6  1  0
  6  7  1  0
  7  8  1  0
  8  9  2  0
  8 10  1  0
 10 11  1  0
 11 12  1  0
 12 13  2  0
 13 14  1  0
 14 15  2  0
 15 16  1  0
 15 17  1  0
 17 18  1  0
 18 19  2  0
 19 20  1  0
 20 21  2  0
 21 22  1  0
 22 23  2  0
 17 12  1  0
 23 18  1  0
  1 24  1  0
  1 25  1  0
  1 26  1  0
  3 27  1  0
  3 28  1  0
  3 29  1  0
  4 30  1  0
  4 31  1  0
  5 32  1  0
  5 33  1  0
  6 34  1  0
  6 35  1  0
  7 36  1  0
 10 37  1  0
 10 38  1  0
 16 39  1  0
 16 40  1  0
 16 41  1  0
 19 42  1  0
 20 43  1  0
 21 44  1  0
 22 45  1  0
 23 46  1  0
M  END
$$$$
[H]c1c([H])c([H])c(C([H])([H])N(C(=O)C(C([H])([H])[H])(C([H])([H])[H])C([H])([H])[H])S(=O)(=O)c2c([H])c([H])c(OC([H])([H])C([H])([H])[H])c([H])c2[H])c(C([H])([H])[H])c1[H]
     RDKit          3D

 54 55  0  0  0  0  0  0  0  0999 V2000
    6.6718   -2.8200   -0.5678 C   0  0  0  0  0  0  0  0  0  0  0  0
    5.5418   -1.9084   -1.0047 C   0  0  0  0  0  0  0  0  0  0  0  0
    4.7940   -1.5227    0.1282 O   0  0  0  0  0  0  0  0  0  0  0  0
    3.6909   -0.6861    0.0522 C   0  0  0  0  0  0  0  0  0  0  0  0
    3.2296   -0.1598   -1.1299 C   0  0  0  0  0  0  0  0  0  0  0  0
    2.1208    0.6708   -1.1379 C   0  0  0  0  0  0  0  0  0  0  0  0
    1.4408    1.0048    0.0009 C   0  0  0  0  0  0  0  0  0  0  0  0
    1.8914    0.4853    1.1915 C   0  0  0  0  0  0  0  0  0  0  0  0
    3.0128   -0.3559    1.2072 C   0  0  0  0  0  0  0  0  0  0  0  0
    0.0389    2.0803    0.0225 S   0  0  0  0  0  0  0  0  0  0  0  0
    0.3484    3.1041   -1.0829 O   0  0  0  0  0  0  0  0  0  0  0  0
    0.0094    2.8744    1.2777 O   0  0  0  0  0  0  0  0  0  0  0  0
   -1.4266    1.2717   -0.3110 N   0  0  0  0  0  0  0  0  0  0  0  0
   -1.3286    0.0835   -1.1825 C   0  0  0  0  0  0  0  0  0  0  0  0
   -1.3386   -1.1852   -0.4845 C   0  0  0  0  0  0  0  0  0  0  0  0
   -1.4666   -1.3174    0.8701 C   0  0  0  0  0  0  0  0  0  0  0  0
   -1.4933   -2.5440    1.5126 C   0  0  0  0  0  0  0  0  0  0  0  0
   -1.3861   -3.6759    0.7532 C   0  0  0  0  0  0  0  0  0  0  0  0
   -1.2572   -3.5798   -0.5985 C   0  0  0  0  0  0  0  0  0  0  0  0
   -1.2318   -2.3444   -1.2310 C   0  0  0  0  0  0  0  0  0  0  0  0
   -1.0866   -2.3360   -2.7089 C   0  0  0  0  0  0  0  0  0  0  0  0
   -2.6978    1.6307    0.1367 C   0  0  0  0  0  0  0  0  0  0  0  0
   -3.6426    0.8161   -0.2728 O   0  0  0  0  0  0  0  0  0  0  0  0
   -3.1801    2.7242    0.9634 C   0  0  0  0  0  0  0  0  0  0  0  0
   -4.7361    2.7594    0.9568 C   0  0  0  0  0  0  0  0  0  0  0  0
   -2.7386    4.0971    0.6101 C   0  0  0  0  0  0  0  0  0  0  0  0
   -2.8163    2.4514    2.4216 C   0  0  0  0  0  0  0  0  0  0  0  0
    7.1495   -3.2092   -1.4780 H   0  0  0  0  0  0  0  0  0  0  0  0
    6.3340   -3.6300    0.0836 H   0  0  0  0  0  0  0  0  0  0  0  0
    7.4002   -2.1668   -0.0287 H   0  0  0  0  0  0  0  0  0  0  0  0
    5.9994   -1.0119   -1.4467 H   0  0  0  0  0  0  0  0  0  0  0  0
    4.9131   -2.3745   -1.7933 H   0  0  0  0  0  0  0  0  0  0  0  0
    3.7457   -0.4066   -2.0383 H   0  0  0  0  0  0  0  0  0  0  0  0
    1.7675    1.0835   -2.0819 H   0  0  0  0  0  0  0  0  0  0  0  0
    1.4077    0.7020    2.1364 H   0  0  0  0  0  0  0  0  0  0  0  0
    3.3756   -0.7703    2.1394 H   0  0  0  0  0  0  0  0  0  0  0  0
   -0.4346    0.2092   -1.8202 H   0  0  0  0  0  0  0  0  0  0  0  0
   -2.1925    0.1912   -1.8840 H   0  0  0  0  0  0  0  0  0  0  0  0
   -1.5523   -0.4536    1.5117 H   0  0  0  0  0  0  0  0  0  0  0  0
   -1.5938   -2.6525    2.5753 H   0  0  0  0  0  0  0  0  0  0  0  0
   -1.4064   -4.6569    1.2531 H   0  0  0  0  0  0  0  0  0  0  0  0
   -1.1730   -4.4780   -1.1920 H   0  0  0  0  0  0  0  0  0  0  0  0
   -1.5902   -1.4540   -3.1715 H   0  0  0  0  0  0  0  0  0  0  0  0
   -1.5409   -3.2650   -3.1046 H   0  0  0  0  0  0  0  0  0  0  0  0
    0.0100   -2.3451   -2.9666 H   0  0  0  0  0  0  0  0  0  0  0  0
   -5.0828    2.7793   -0.0957 H   0  0  0  0  0  0  0  0  0  0  0  0
   -5.1375    1.9084    1.5050 H   0  0  0  0  0  0  0  0  0  0  0  0
   -5.0673    3.6931    1.4331 H   0  0  0  0  0  0  0  0  0  0  0  0
   -2.2626    4.6006    1.4831 H   0  0  0  0  0  0  0  0  0  0  0  0
   -2.1657    4.1905   -0.3292 H   0  0  0  0  0  0  0  0  0  0  0  0
   -3.6606    4.7311    0.4318 H   0  0  0  0  0  0  0  0  0  0  0  0
   -2.1690    1.5678    2.5421 H   0  0  0  0  0  0  0  0  0  0  0  0
   -3.7381    2.2748    3.0501 H   0  0  0  0  0  0  0  0  0  0  0  0
   -2.2989    3.3246    2.8940 H   0  0  0  0  0  0  0  0  0  0  0  0
  1  2  1  0
  2  3  1  0
  3  4  1  0
  4  5  2  0
  5  6  1  0
  6  7  2  0
  7  8  1  0
  8  9  2  0
  7 10  1  0
 10 11  2  0
 10 12  2  0
 10 13  1  0
 13 14  1  0
 14 15  1  0
 15 16  2  0
 16 17  1  0
 17 18  2  0
 18 19  1  0
 19 20  2  0
 20 21  1  0
 13 22  1  0
 22 23  2  0
 22 24  1  0
 24 25  1  0
 24 26  1  0
 24 27  1  0
  9  4  1  0
 20 15  1  0
  1 28  1  0
  1 29  1  0
  1 30  1  0
  2 31  1  0
  2 32  1  0
  5 33  1  0
  6 34  1  0
  8 35  1  0
  9 36  1  0
 14 37  1  0
 14 38  1  0
 16 39  1  0
 17 40  1  0
 18 41  1  0
 19 42  1  0
 21 43  1  0
 21 44  1  0
 21 45  1  0
 25 46  1  0
 25 47  1  0
 25 48  1  0
 26 49  1  0
 26 50  1  0
 26 51  1  0
 27 52  1  0
 27 53  1  0
 27 54  1  0
M  END
$$$$
[H]c1c([H])c([H])c(C([H])([H])N([H])C(=O)Oc2c([H])c([H])c(C(F)(F)F)c([H])c2-c2c([H])c([H])c(N([H])S(=O)(=O)C([H])([H])C([H])([H])[H])c([H])c2[H])c(Cl)c1[H]
     RDKit          3D

 54 56  0  0  0  0  0  0  0  0999 V2000
    6.2332    2.0022    0.7964 C   0  0  0  0  0  0  0  0  0  0  0  0
    4.9333    2.5657    1.3529 C   0  0  0  0  0  0  0  0  0  0  0  0
    3.8807    3.0517    0.0221 S   0  0  0  0  0  0  0  0  0  0  0  0
    4.5788    4.1882   -0.7069 O   0  0  0  0  0  0  0  0  0  0  0  0
    2.6361    3.6620    0.6380 O   0  0  0  0  0  0  0  0  0  0  0  0
    3.4591    1.8046   -1.0483 N   0  0  0  0  0  0  0  0  0  0  0  0
    2.7254    0.6282   -0.7522 C   0  0  0  0  0  0  0  0  0  0  0  0
    1.7478    0.3195   -1.7160 C   0  0  0  0  0  0  0  0  0  0  0  0
    0.9902   -0.8046   -1.4988 C   0  0  0  0  0  0  0  0  0  0  0  0
    1.1234   -1.6361   -0.4132 C   0  0  0  0  0  0  0  0  0  0  0  0
    2.0932   -1.3198    0.5310 C   0  0  0  0  0  0  0  0  0  0  0  0
    2.8677   -0.1797    0.3161 C   0  0  0  0  0  0  0  0  0  0  0  0
    0.2936   -2.8143   -0.2567 C   0  0  0  0  0  0  0  0  0  0  0  0
    0.8467   -4.0060    0.1400 C   0  0  0  0  0  0  0  0  0  0  0  0
    0.0861   -5.1617    0.2752 C   0  0  0  0  0  0  0  0  0  0  0  0
   -1.2481   -5.0575   -0.0058 C   0  0  0  0  0  0  0  0  0  0  0  0
   -1.8685   -3.8796   -0.4124 C   0  0  0  0  0  0  0  0  0  0  0  0
   -1.0563   -2.7524   -0.5300 C   0  0  0  0  0  0  0  0  0  0  0  0
   -1.6252   -1.5913   -0.9193 O   0  0  0  0  0  0  0  0  0  0  0  0
   -2.8597   -1.0177   -0.5236 C   0  0  0  0  0  0  0  0  0  0  0  0
   -3.4697   -1.7553    0.3205 O   0  0  0  0  0  0  0  0  0  0  0  0
   -3.2442    0.1648   -1.0455 N   0  0  0  0  0  0  0  0  0  0  0  0
   -3.6424    1.3815   -1.5809 C   0  0  0  0  0  0  0  0  0  0  0  0
   -3.9932    2.3974   -0.5411 C   0  0  0  0  0  0  0  0  0  0  0  0
   -4.0358    2.1364    0.8066 C   0  0  0  0  0  0  0  0  0  0  0  0
   -4.4201    3.0945    1.7436 C   0  0  0  0  0  0  0  0  0  0  0  0
   -4.7710    4.3560    1.3013 C   0  0  0  0  0  0  0  0  0  0  0  0
   -4.7438    4.6753   -0.0575 C   0  0  0  0  0  0  0  0  0  0  0  0
   -4.3536    3.6767   -0.9115 C   0  0  0  0  0  0  0  0  0  0  0  0
   -4.2646    4.0197   -2.6408 Cl  0  0  0  0  0  0  0  0  0  0  0  0
    0.6855   -6.4575    0.7013 C   0  0  0  0  0  0  0  0  0  0  0  0
    0.4540   -7.4337   -0.2634 F   0  0  0  0  0  0  0  0  0  0  0  0
    2.0457   -6.3145    0.8640 F   0  0  0  0  0  0  0  0  0  0  0  0
    0.1746   -6.8685    1.9167 F   0  0  0  0  0  0  0  0  0  0  0  0
    7.1099    2.3721    1.3471 H   0  0  0  0  0  0  0  0  0  0  0  0
    6.1597    0.9182    0.7946 H   0  0  0  0  0  0  0  0  0  0  0  0
    6.3303    2.3794   -0.2627 H   0  0  0  0  0  0  0  0  0  0  0  0
    5.1686    3.5299    1.9094 H   0  0  0  0  0  0  0  0  0  0  0  0
    4.4340    1.9004    2.0500 H   0  0  0  0  0  0  0  0  0  0  0  0
    3.7950    1.9305   -2.0631 H   0  0  0  0  0  0  0  0  0  0  0  0
    1.5948    0.9343   -2.5902 H   0  0  0  0  0  0  0  0  0  0  0  0
    0.2251   -1.0785   -2.2536 H   0  0  0  0  0  0  0  0  0  0  0  0
    2.2002   -1.9624    1.3832 H   0  0  0  0  0  0  0  0  0  0  0  0
    3.6090    0.0215    1.0599 H   0  0  0  0  0  0  0  0  0  0  0  0
    1.9157   -4.0946    0.3631 H   0  0  0  0  0  0  0  0  0  0  0  0
   -1.8839   -5.9438    0.0892 H   0  0  0  0  0  0  0  0  0  0  0  0
   -2.9260   -3.8777   -0.6278 H   0  0  0  0  0  0  0  0  0  0  0  0
   -4.4366    0.0890   -0.3976 H   0  0  0  0  0  0  0  0  0  0  0  0
   -4.5000    1.2602   -2.2983 H   0  0  0  0  0  0  0  0  0  0  0  0
   -2.7654    1.7934   -2.1922 H   0  0  0  0  0  0  0  0  0  0  0  0
   -3.7607    1.1485    1.1710 H   0  0  0  0  0  0  0  0  0  0  0  0
   -4.4451    2.8550    2.8016 H   0  0  0  0  0  0  0  0  0  0  0  0
   -5.0662    5.0908    2.0197 H   0  0  0  0  0  0  0  0  0  0  0  0
   -5.0173    5.6597   -0.3793 H   0  0  0  0  0  0  0  0  0  0  0  0
  1  2  1  0
  2  3  1  0
  3  4  2  0
  3  5  2  0
  3  6  1  0
  6  7  1  0
  7  8  2  0
  8  9  1  0
  9 10  2  0
 10 11  1  0
 11 12  2  0
 10 13  1  0
 13 14  2  0
 14 15  1  0
 15 16  2  0
 16 17  1  0
 17 18  2  0
 18 19  1  0
 19 20  1  0
 20 21  2  0
 20 22  1  0
 22 23  1  0
 23 24  1  0
 24 25  2  0
 25 26  1  0
 26 27  2  0
 27 28  1  0
 28 29  2  0
 29 30  1  0
 15 31  1  0
 31 32  1  0
 31 33  1  0
 31 34  1  0
 12  7  1  0
 18 13  1  0
 29 24  1  0
  1 35  1  0
  1 36  1  0
  1 37  1  0
  2 38  1  0
  2 39  1  0
  6 40  1  0
  8 41  1  0
  9 42  1  0
 11 43  1  0
 12 44  1  0
 14 45  1  0
 16 46  1  0
 17 47  1  0
 22 48  1  0
 23 49  1  0
 23 50  1  0
 25 51  1  0
 26 52  1  0
 27 53  1  0
 28 54  1  0
M  END
$$$$
[H]c1nc(C(N([H])C(=O)c2nc3c([H])c([H])c(N4C([H])([H])C([H])(C(=O)N([H])c5c(C([H])([H])[H])nc([H])c([H])c5[H])C4([H])[H])c([H])c3o2)(C([H])([H])[H])C([H])([H])[H])c([H])c([H])c1[H]
     RDKit          3D

 61 65  0  0  0  0  0  0  0  0999 V2000
   -6.5180    2.1038   -0.6774 C   0  0  0  0  0  0  0  0  0  0  0  0
   -7.7007    1.2737   -0.2125 C   0  0  0  0  0  0  0  0  0  0  0  0
   -8.7924    1.8421    0.3158 N   0  0  0  0  0  0  0  0  0  0  0  0
   -9.8597    1.1578    0.6571 C   0  0  0  0  0  0  0  0  0  0  0  0
   -9.8277   -0.2410    0.4469 C   0  0  0  0  0  0  0  0  0  0  0  0
   -8.7432   -0.8319   -0.0768 C   0  0  0  0  0  0  0  0  0  0  0  0
   -7.5981   -0.1181   -0.4501 C   0  0  0  0  0  0  0  0  0  0  0  0
   -6.4230   -0.6258   -0.8016 N   0  0  0  0  0  0  0  0  0  0  0  0
   -5.2017   -1.1660   -1.1805 C   0  0  0  0  0  0  0  0  0  0  0  0
   -5.0225   -1.9102   -2.0890 O   0  0  0  0  0  0  0  0  0  0  0  0
   -3.9615   -0.8328   -0.3900 C   0  0  0  0  0  0  0  0  0  0  0  0
   -3.1597   -1.9382    0.2559 C   0  0  0  0  0  0  0  0  0  0  0  0
   -2.6978   -0.7903    1.0791 N   0  0  0  0  0  0  0  0  0  0  0  0
   -4.0837   -0.4506    1.0382 C   0  0  0  0  0  0  0  0  0  0  0  0
   -1.4620   -0.4077    1.5641 C   0  0  0  0  0  0  0  0  0  0  0  0
   -1.1864    0.1384    2.8281 C   0  0  0  0  0  0  0  0  0  0  0  0
    0.1002    0.4815    3.2193 C   0  0  0  0  0  0  0  0  0  0  0  0
    1.1904    0.2989    2.3934 C   0  0  0  0  0  0  0  0  0  0  0  0
    2.5059    0.5162    2.4934 N   0  0  0  0  0  0  0  0  0  0  0  0
    3.0726    0.1316    1.3552 C   0  0  0  0  0  0  0  0  0  0  0  0
    2.1144   -0.3021    0.5856 O   0  0  0  0  0  0  0  0  0  0  0  0
    0.9501   -0.2346    1.1442 C   0  0  0  0  0  0  0  0  0  0  0  0
   -0.3231   -0.5609    0.7977 C   0  0  0  0  0  0  0  0  0  0  0  0
    4.4751    0.1366    0.9760 C   0  0  0  0  0  0  0  0  0  0  0  0
    5.4368    0.0790    1.7477 O   0  0  0  0  0  0  0  0  0  0  0  0
    4.7502    0.2041   -0.4449 N   0  0  0  0  0  0  0  0  0  0  0  0
    5.9997    0.1430   -1.1116 C   0  0  0  0  0  0  0  0  0  0  0  0
    5.9238    0.9080   -2.4253 C   0  0  0  0  0  0  0  0  0  0  0  0
    5.9790   -1.3664   -1.6940 C   0  0  0  0  0  0  0  0  0  0  0  0
    7.1951    0.1992   -0.3255 C   0  0  0  0  0  0  0  0  0  0  0  0
    7.8397    1.3979   -0.0329 C   0  0  0  0  0  0  0  0  0  0  0  0
    8.9908    1.3794    0.7059 C   0  0  0  0  0  0  0  0  0  0  0  0
    9.5195    0.2105    1.1529 C   0  0  0  0  0  0  0  0  0  0  0  0
    8.8753   -0.9986    0.8499 C   0  0  0  0  0  0  0  0  0  0  0  0
    7.7651   -0.9729    0.1470 N   0  0  0  0  0  0  0  0  0  0  0  0
   -6.8918    3.1855   -0.6359 H   0  0  0  0  0  0  0  0  0  0  0  0
   -5.6603    2.0567   -0.0083 H   0  0  0  0  0  0  0  0  0  0  0  0
   -6.2429    1.9667   -1.7662 H   0  0  0  0  0  0  0  0  0  0  0  0
  -10.7128    1.6233    1.0818 H   0  0  0  0  0  0  0  0  0  0  0  0
  -10.7208   -0.7574    0.7398 H   0  0  0  0  0  0  0  0  0  0  0  0
   -8.7412   -1.9424   -0.2444 H   0  0  0  0  0  0  0  0  0  0  0  0
   -7.0192   -1.4714   -1.6921 H   0  0  0  0  0  0  0  0  0  0  0  0
   -3.2695   -0.0798   -0.8921 H   0  0  0  0  0  0  0  0  0  0  0  0
   -2.3359   -2.2914   -0.3931 H   0  0  0  0  0  0  0  0  0  0  0  0
   -3.6657   -2.6703    0.8776 H   0  0  0  0  0  0  0  0  0  0  0  0
   -4.3331    0.5909    1.2494 H   0  0  0  0  0  0  0  0  0  0  0  0
   -4.6389   -1.1746    1.6811 H   0  0  0  0  0  0  0  0  0  0  0  0
   -1.9553    0.3304    3.5467 H   0  0  0  0  0  0  0  0  0  0  0  0
    0.2324    0.9259    4.1760 H   0  0  0  0  0  0  0  0  0  0  0  0
   -0.4569   -1.0548   -0.2173 H   0  0  0  0  0  0  0  0  0  0  0  0
    3.8791    0.3185   -1.1037 H   0  0  0  0  0  0  0  0  0  0  0  0
    6.1818    1.9674   -2.2017 H   0  0  0  0  0  0  0  0  0  0  0  0
    6.5888    0.5228   -3.1907 H   0  0  0  0  0  0  0  0  0  0  0  0
    4.8766    0.9240   -2.7352 H   0  0  0  0  0  0  0  0  0  0  0  0
    5.9354   -2.0152   -0.8237 H   0  0  0  0  0  0  0  0  0  0  0  0
    6.9562   -1.3735   -2.2350 H   0  0  0  0  0  0  0  0  0  0  0  0
    5.1639   -1.3827   -2.3928 H   0  0  0  0  0  0  0  0  0  0  0  0
    7.4584    2.3419   -0.3714 H   0  0  0  0  0  0  0  0  0  0  0  0
    9.4911    2.3199    0.9300 H   0  0  0  0  0  0  0  0  0  0  0  0
   10.4373    0.1965    1.7264 H   0  0  0  0  0  0  0  0  0  0  0  0
    9.3208   -1.9107    1.2240 H   0  0  0  0  0  0  0  0  0  0  0  0
  1  2  1  0
  2  3  2  0
  3  4  1  0
  4  5  2  0
  5  6  1  0
  6  7  2  0
  7  8  1  0
  8  9  1  0
  9 10  2  0
  9 11  1  0
 11 12  1  0
 12 13  1  0
 13 14  1  0
 13 15  1  0
 15 16  2  0
 16 17  1  0
 17 18  2  0
 18 19  1  0
 19 20  2  0
 20 21  1  0
 21 22  1  0
 22 23  2  0
 20 24  1  0
 24 25  2  0
 24 26  1  0
 26 27  1  0
 27 28  1  0
 27 29  1  0
 27 30  1  0
 30 31  2  0
 31 32  1  0
 32 33  2  0
 33 34  1  0
 34 35  2  0
  7  2  1  0
 14 11  1  0
 23 15  1  0
 35 30  1  0
 22 18  1  0
  1 36  1  0
  1 37  1  0
  1 38  1  0
  4 39  1  0
  5 40  1  0
  6 41  1  0
  8 42  1  0
 11 43  1  0
 12 44  1  0
 12 45  1  0
 14 46  1  0
 14 47  1  0
 16 48  1  0
 17 49  1  0
 23 50  1  0
 26 51  1  0
 28 52  1  0
 28 53  1  0
 28 54  1  0
 29 55  1  0
 29 56  1  0
 29 57  1  0
 31 58  1  0
 32 59  1  0
 33 60  1  0
 34 61  1  0
M  END
$$$$
[H]Oc1c([H])c(C([H])([H])C(=O)N2C([H])([H])C([H])([H])OC([H])([H])[C@@]2([H])C([H])([H])[H])c(-c2c([H])nc([H])nc2[H])c([H])c1C(=NN([H])C(=O)c1sc([H])nc1[H])c1c([H])c([H])nc(Cl)c1[H]
     RDKit          3D

 64 68  0  0  0  0  0  0  0  0999 V2000
   -6.4892    0.1774   -0.7552 C   0  0  0  0  0  0  0  0  0  0  0  0
   -5.5366    0.3613    0.4071 C   0  0  2  0  0  0  0  0  0  0  0  0
   -6.0142    1.5384    1.2125 C   0  0  0  0  0  0  0  0  0  0  0  0
   -5.8191    2.7082    0.4845 O   0  0  0  0  0  0  0  0  0  0  0  0
   -4.4712    3.0440    0.3166 C   0  0  0  0  0  0  0  0  0  0  0  0
   -3.5659    1.8529    0.5514 C   0  0  0  0  0  0  0  0  0  0  0  0
   -4.1807    0.7160   -0.1077 N   0  0  0  0  0  0  0  0  0  0  0  0
   -3.6100   -0.0710   -1.1112 C   0  0  0  0  0  0  0  0  0  0  0  0
   -4.3233   -1.1158   -1.4447 O   0  0  0  0  0  0  0  0  0  0  0  0
   -2.3883    0.0895   -1.8194 C   0  0  0  0  0  0  0  0  0  0  0  0
   -1.0596   -0.1470   -1.2452 C   0  0  0  0  0  0  0  0  0  0  0  0
   -0.0426    0.7908   -1.5132 C   0  0  0  0  0  0  0  0  0  0  0  0
    1.2663    0.6043   -1.1456 C   0  0  0  0  0  0  0  0  0  0  0  0
    2.2369    1.5822   -1.4451 O   0  0  0  0  0  0  0  0  0  0  0  0
    1.6717   -0.5430   -0.4702 C   0  0  0  0  0  0  0  0  0  0  0  0
    0.7084   -1.4428   -0.2008 C   0  0  0  0  0  0  0  0  0  0  0  0
   -0.6507   -1.2631   -0.5798 C   0  0  0  0  0  0  0  0  0  0  0  0
   -1.5421   -2.3399   -0.1948 C   0  0  0  0  0  0  0  0  0  0  0  0
   -2.2051   -2.2709    1.0069 C   0  0  0  0  0  0  0  0  0  0  0  0
   -3.0318   -3.3114    1.3230 N   0  0  0  0  0  0  0  0  0  0  0  0
   -3.2051   -4.3708    0.5077 C   0  0  0  0  0  0  0  0  0  0  0  0
   -2.5538   -4.4327   -0.6651 N   0  0  0  0  0  0  0  0  0  0  0  0
   -1.7208   -3.4136   -1.0152 C   0  0  0  0  0  0  0  0  0  0  0  0
    3.1155   -0.6640   -0.1240 C   0  0  0  0  0  0  0  0  0  0  0  0
    3.8458    0.3104   -0.4512 N   0  0  0  0  0  0  0  0  0  0  0  0
    4.9608    0.8818   -0.5101 N   0  0  0  0  0  0  0  0  0  0  0  0
    6.1590    1.4941   -0.5740 C   0  0  0  0  0  0  0  0  0  0  0  0
    7.2725    1.0505   -1.0037 O   0  0  0  0  0  0  0  0  0  0  0  0
    6.3107    2.9151   -0.0848 C   0  0  0  0  0  0  0  0  0  0  0  0
    5.3077    3.6898    0.4803 C   0  0  0  0  0  0  0  0  0  0  0  0
    5.6283    4.8854    0.8678 N   0  0  0  0  0  0  0  0  0  0  0  0
    6.8978    5.3075    0.6998 C   0  0  0  0  0  0  0  0  0  0  0  0
    7.6299    3.9634   -0.0200 S   0  0  0  0  0  0  0  0  0  0  0  0
    3.7378   -1.7397    0.5929 C   0  0  0  0  0  0  0  0  0  0  0  0
    4.8476   -1.4535    1.4018 C   0  0  0  0  0  0  0  0  0  0  0  0
    5.5857   -2.4093    2.0494 C   0  0  0  0  0  0  0  0  0  0  0  0
    5.2031   -3.6768    1.8824 N   0  0  0  0  0  0  0  0  0  0  0  0
    4.1667   -4.0369    1.1365 C   0  0  0  0  0  0  0  0  0  0  0  0
    3.7293   -5.7530    0.9445 Cl  0  0  0  0  0  0  0  0  0  0  0  0
    3.4128   -3.0611    0.4733 C   0  0  0  0  0  0  0  0  0  0  0  0
   -6.7104   -0.8945   -0.8969 H   0  0  0  0  0  0  0  0  0  0  0  0
   -7.4332    0.6746   -0.4895 H   0  0  0  0  0  0  0  0  0  0  0  0
   -6.1068    0.6922   -1.6693 H   0  0  0  0  0  0  0  0  0  0  0  0
   -5.5150   -0.5760    0.9749 H   0  0  0  0  0  0  0  0  0  0  0  0
   -7.1390    1.4257    1.2685 H   0  0  0  0  0  0  0  0  0  0  0  0
   -5.6441    1.5771    2.2355 H   0  0  0  0  0  0  0  0  0  0  0  0
   -4.2692    3.3959   -0.7269 H   0  0  0  0  0  0  0  0  0  0  0  0
   -4.2284    3.8559    1.0435 H   0  0  0  0  0  0  0  0  0  0  0  0
   -3.5680    1.6748    1.6774 H   0  0  0  0  0  0  0  0  0  0  0  0
   -2.5581    2.0585    0.2112 H   0  0  0  0  0  0  0  0  0  0  0  0
   -2.4240   -0.4327   -2.8615 H   0  0  0  0  0  0  0  0  0  0  0  0
   -2.3759    1.1856   -2.2110 H   0  0  0  0  0  0  0  0  0  0  0  0
   -0.3208    1.6852   -2.0441 H   0  0  0  0  0  0  0  0  0  0  0  0
    1.9660    2.4168   -1.9469 H   0  0  0  0  0  0  0  0  0  0  0  0
    0.9696   -2.3094    0.3602 H   0  0  0  0  0  0  0  0  0  0  0  0
   -2.1235   -1.4804    1.7024 H   0  0  0  0  0  0  0  0  0  0  0  0
   -3.9138   -5.1608    0.8225 H   0  0  0  0  0  0  0  0  0  0  0  0
   -1.2040   -3.5065   -1.9686 H   0  0  0  0  0  0  0  0  0  0  0  0
    5.5164   -0.2787   -1.0147 H   0  0  0  0  0  0  0  0  0  0  0  0
    4.2865    3.2786    0.5760 H   0  0  0  0  0  0  0  0  0  0  0  0
    7.2439    6.3151    1.0040 H   0  0  0  0  0  0  0  0  0  0  0  0
    5.1825   -0.4263    1.5781 H   0  0  0  0  0  0  0  0  0  0  0  0
    6.4616   -2.1648    2.6751 H   0  0  0  0  0  0  0  0  0  0  0  0
    2.6236   -3.4525   -0.1570 H   0  0  0  0  0  0  0  0  0  0  0  0
  1  2  1  0
  2  3  1  0
  3  4  1  0
  4  5  1  0
  5  6  1  0
  6  7  1  0
  7  8  1  0
  8  9  2  0
  8 10  1  0
 10 11  1  0
 11 12  2  0
 12 13  1  0
 13 14  1  0
 13 15  2  0
 15 16  1  0
 16 17  2  0
 17 18  1  0
 18 19  2  0
 19 20  1  0
 20 21  2  0
 21 22  1  0
 22 23  2  0
 15 24  1  0
 24 25  2  3
 25 26  1  0
 26 27  1  0
 27 28  2  0
 27 29  1  0
 29 30  2  0
 30 31  1  0
 31 32  2  0
 32 33  1  0
 24 34  1  0
 34 35  2  0
 35 36  1  0
 36 37  2  0
 37 38  1  0
 38 39  1  0
 38 40  2  0
  7  2  1  0
 17 11  1  0
 23 18  1  0
 33 29  1  0
 40 34  1  0
  1 41  1  0
  1 42  1  0
  1 43  1  0
  2 44  1  1
  3 45  1  0
  3 46  1  0
  5 47  1  0
  5 48  1  0
  6 49  1  0
  6 50  1  0
 10 51  1  0
 10 52  1  0
 12 53  1  0
 14 54  1  0
 16 55  1  0
 19 56  1  0
 21 57  1  0
 23 58  1  0
 26 59  1  0
 30 60  1  0
 32 61  1  0
 35 62  1  0
 36 63  1  0
 40 64  1  0
M  END
$$$$
[H]Oc1c([H])c([H])c(-c2c(-c3c([H])c([H])c(C([H])([H])Oc4c([H])c([H])c5c(c4[H])C([H])([H])C([H])([H])C5([H])[H])c(OC([H])([H])[H])c3[H])nn(C([H])([H])[H])c2[H])c([H])c1OC([H])([H])[H]
     RDKit          3D

 62 66  0  0  0  0  0  0  0  0999 V2000
   -7.2589   -2.3677    1.8527 C   0  0  0  0  0  0  0  0  0  0  0  0
   -6.5101   -3.1679    0.9298 O   0  0  0  0  0  0  0  0  0  0  0  0
   -5.5766   -2.5739    0.0978 C   0  0  0  0  0  0  0  0  0  0  0  0
   -5.3602   -1.2134    0.1528 C   0  0  0  0  0  0  0  0  0  0  0  0
   -4.4384   -0.5640   -0.6565 C   0  0  0  0  0  0  0  0  0  0  0  0
   -3.7370   -1.3523   -1.5276 C   0  0  0  0  0  0  0  0  0  0  0  0
   -3.9436   -2.7266   -1.5950 C   0  0  0  0  0  0  0  0  0  0  0  0
   -4.8624   -3.3258   -0.7822 C   0  0  0  0  0  0  0  0  0  0  0  0
   -5.0492   -4.7060   -0.8727 O   0  0  0  0  0  0  0  0  0  0  0  0
   -4.2969    0.8733   -0.4880 C   0  0  0  0  0  0  0  0  0  0  0  0
   -5.2545    1.8655   -0.6897 C   0  0  0  0  0  0  0  0  0  0  0  0
   -4.7321    3.0600   -0.4024 N   0  0  0  0  0  0  0  0  0  0  0  0
   -5.4070    4.3580   -0.4908 C   0  0  0  0  0  0  0  0  0  0  0  0
   -3.4896    2.8579   -0.0291 N   0  0  0  0  0  0  0  0  0  0  0  0
   -3.1847    1.5219   -0.0704 C   0  0  0  0  0  0  0  0  0  0  0  0
   -1.8520    0.9786    0.2308 C   0  0  0  0  0  0  0  0  0  0  0  0
   -1.5515   -0.1026    0.9697 C   0  0  0  0  0  0  0  0  0  0  0  0
   -0.2236   -0.4911    1.2229 C   0  0  0  0  0  0  0  0  0  0  0  0
    0.8001    0.2469    0.7056 C   0  0  0  0  0  0  0  0  0  0  0  0
    2.2553   -0.0112    1.0203 C   0  0  0  0  0  0  0  0  0  0  0  0
    2.9684   -0.0725   -0.1853 O   0  0  0  0  0  0  0  0  0  0  0  0
    4.3201   -0.2262   -0.3583 C   0  0  0  0  0  0  0  0  0  0  0  0
    4.8883   -0.2397   -1.6386 C   0  0  0  0  0  0  0  0  0  0  0  0
    6.2365   -0.3839   -1.8212 C   0  0  0  0  0  0  0  0  0  0  0  0
    7.1015   -0.5252   -0.7516 C   0  0  0  0  0  0  0  0  0  0  0  0
    8.5926   -0.7017   -0.6476 C   0  0  0  0  0  0  0  0  0  0  0  0
    8.6840   -1.4866    0.6744 C   0  0  0  0  0  0  0  0  0  0  0  0
    7.6476   -0.6901    1.4884 C   0  0  0  0  0  0  0  0  0  0  0  0
    6.5576   -0.5145    0.5099 C   0  0  0  0  0  0  0  0  0  0  0  0
    5.1843   -0.3682    0.7046 C   0  0  0  0  0  0  0  0  0  0  0  0
    0.5034    1.3810   -0.0704 C   0  0  0  0  0  0  0  0  0  0  0  0
    1.5552    2.1120   -0.5868 O   0  0  0  0  0  0  0  0  0  0  0  0
    1.2546    3.2571   -1.3855 C   0  0  0  0  0  0  0  0  0  0  0  0
   -0.7996    1.7363   -0.3004 C   0  0  0  0  0  0  0  0  0  0  0  0
   -6.5423   -1.8763    2.5641 H   0  0  0  0  0  0  0  0  0  0  0  0
   -7.8758   -1.5905    1.3121 H   0  0  0  0  0  0  0  0  0  0  0  0
   -7.9324   -3.0247    2.4295 H   0  0  0  0  0  0  0  0  0  0  0  0
   -5.9268   -0.6264    0.8545 H   0  0  0  0  0  0  0  0  0  0  0  0
   -3.0035   -0.8905   -2.1903 H   0  0  0  0  0  0  0  0  0  0  0  0
   -3.3370   -3.2733   -2.3208 H   0  0  0  0  0  0  0  0  0  0  0  0
   -5.7129   -5.1488   -0.2735 H   0  0  0  0  0  0  0  0  0  0  0  0
   -6.2675    1.6776   -1.0235 H   0  0  0  0  0  0  0  0  0  0  0  0
   -4.9087    5.0928    0.1582 H   0  0  0  0  0  0  0  0  0  0  0  0
   -6.4860    4.2340   -0.2174 H   0  0  0  0  0  0  0  0  0  0  0  0
   -5.3837    4.7476   -1.5291 H   0  0  0  0  0  0  0  0  0  0  0  0
   -2.3742   -0.6974    1.3854 H   0  0  0  0  0  0  0  0  0  0  0  0
   -0.0114   -1.3656    1.8334 H   0  0  0  0  0  0  0  0  0  0  0  0
    2.2997   -1.0141    1.5707 H   0  0  0  0  0  0  0  0  0  0  0  0
    2.6020    0.7845    1.6828 H   0  0  0  0  0  0  0  0  0  0  0  0
    4.2149   -0.1297   -2.4779 H   0  0  0  0  0  0  0  0  0  0  0  0
    6.6975   -0.3949   -2.8111 H   0  0  0  0  0  0  0  0  0  0  0  0
    9.0292   -1.2468   -1.4764 H   0  0  0  0  0  0  0  0  0  0  0  0
    9.0407    0.2902   -0.4229 H   0  0  0  0  0  0  0  0  0  0  0  0
    8.3963   -2.5277    0.5963 H   0  0  0  0  0  0  0  0  0  0  0  0
    9.7033   -1.2901    1.0747 H   0  0  0  0  0  0  0  0  0  0  0  0
    7.3493   -1.2329    2.4110 H   0  0  0  0  0  0  0  0  0  0  0  0
    8.1389    0.2932    1.7228 H   0  0  0  0  0  0  0  0  0  0  0  0
    4.7677   -0.3758    1.7332 H   0  0  0  0  0  0  0  0  0  0  0  0
    2.2036    3.6996   -1.7257 H   0  0  0  0  0  0  0  0  0  0  0  0
    0.5688    3.9560   -0.9118 H   0  0  0  0  0  0  0  0  0  0  0  0
    0.7521    2.8821   -2.3208 H   0  0  0  0  0  0  0  0  0  0  0  0
   -1.0236    2.6107   -0.8897 H   0  0  0  0  0  0  0  0  0  0  0  0
  1  2  1  0
  2  3  1  0
  3  4  2  0
  4  5  1  0
  5  6  2  0
  6  7  1  0
  7  8  2  0
  8  9  1  0
  5 10  1  0
 10 11  2  0
 11 12  1  0
 12 13  1  0
 12 14  1  0
 14 15  2  0
 15 16  1  0
 16 17  2  0
 17 18  1  0
 18 19  2  0
 19 20  1  0
 20 21  1  0
 21 22  1  0
 22 23  2  0
 23 24  1  0
 24 25  2  0
 25 26  1  0
 26 27  1  0
 27 28  1  0
 28 29  1  0
 29 30  2  0
 19 31  1  0
 31 32  1  0
 32 33  1  0
 31 34  2  0
  8  3  1  0
 15 10  1  0
 34 16  1  0
 30 22  1  0
 29 25  1  0
  1 35  1  0
  1 36  1  0
  1 37  1  0
  4 38  1  0
  6 39  1  0
  7 40  1  0
  9 41  1  0
 11 42  1  0
 13 43  1  0
 13 44  1  0
 13 45  1  0
 17 46  1  0
 18 47  1  0
 20 48  1  0
 20 49  1  0
 23 50  1  0
 24 51  1  0
 26 52  1  0
 26 53  1  0
 27 54  1  0
 27 55  1  0
 28 56  1  0
 28 57  1  0
 30 58  1  0
 33 59  1  0
 33 60  1  0
 33 61  1  0
 34 62  1  0
M  END
$$$$
[H]OC(=O)[C@@]([H])(OC([H])([H])[H])[C@@]1(C([H])([H])[H])c2nc(-c3c(Cl)c([H])c([H])c([H])c3OC([H])([H])[H])n(C([H])(C([H])([H])[H])C([H])([H])[H])c2N([H])c2c([H])c([H])c(C([H])([H])C(=O)N([H])O[H])c([H])c21
     RDKit          3D

 66 69  0  0  0  0  0  0  0  0999 V2000
   -2.7277    1.2687   -3.1085 C   0  0  0  0  0  0  0  0  0  0  0  0
   -2.3320    1.8534   -1.7687 C   0  0  0  0  0  0  0  0  0  0  0  0
   -3.5113    2.5881   -1.2114 C   0  0  0  0  0  0  0  0  0  0  0  0
   -1.7565    0.9302   -0.8541 N   0  0  0  0  0  0  0  0  0  0  0  0
   -0.3911    0.6945   -0.8272 C   0  0  0  0  0  0  0  0  0  0  0  0
    0.6628    1.2547   -1.5927 N   0  0  0  0  0  0  0  0  0  0  0  0
    1.9827    0.7890   -1.3148 C   0  0  0  0  0  0  0  0  0  0  0  0
    3.0072    1.3518   -2.0783 C   0  0  0  0  0  0  0  0  0  0  0  0
    4.2984    0.9410   -1.8538 C   0  0  0  0  0  0  0  0  0  0  0  0
    4.5629    0.0014   -0.9015 C   0  0  0  0  0  0  0  0  0  0  0  0
    5.9935   -0.4288   -0.6788 C   0  0  0  0  0  0  0  0  0  0  0  0
    6.6005    0.4327    0.3372 C   0  0  0  0  0  0  0  0  0  0  0  0
    5.9189    1.3484    0.8586 O   0  0  0  0  0  0  0  0  0  0  0  0
    7.9589    0.2804    0.7747 N   0  0  0  0  0  0  0  0  0  0  0  0
    8.5055    1.0714    1.7032 O   0  0  0  0  0  0  0  0  0  0  0  0
    3.5561   -0.5424   -0.1611 C   0  0  0  0  0  0  0  0  0  0  0  0
    2.2398   -0.1491   -0.3629 C   0  0  0  0  0  0  0  0  0  0  0  0
    1.1751   -0.7413    0.4385 C   0  0  1  0  0  0  0  0  0  0  0  0
    1.1788   -2.2354    0.1402 C   0  0  0  0  0  0  0  0  0  0  0  0
    1.4357   -0.6069    1.9331 C   0  0  2  0  0  0  0  0  0  0  0  0
    0.3639   -1.2018    2.5921 O   0  0  0  0  0  0  0  0  0  0  0  0
    0.7879   -2.2724    3.3897 C   0  0  0  0  0  0  0  0  0  0  0  0
    1.4767    0.8351    2.3338 C   0  0  0  0  0  0  0  0  0  0  0  0
    0.5477    1.3652    3.2190 O   0  0  0  0  0  0  0  0  0  0  0  0
    2.3526    1.6224    1.8854 O   0  0  0  0  0  0  0  0  0  0  0  0
   -0.1715   -0.2430    0.1303 C   0  0  0  0  0  0  0  0  0  0  0  0
   -1.3928   -0.5716    0.6779 N   0  0  0  0  0  0  0  0  0  0  0  0
   -2.3452    0.1691    0.0491 C   0  0  0  0  0  0  0  0  0  0  0  0
   -3.7524   -0.0166    0.4644 C   0  0  0  0  0  0  0  0  0  0  0  0
   -4.2664    0.6344    1.5567 C   0  0  0  0  0  0  0  0  0  0  0  0
   -3.2144    1.6508    2.5185 Cl  0  0  0  0  0  0  0  0  0  0  0  0
   -5.5697    0.4750    1.9481 C   0  0  0  0  0  0  0  0  0  0  0  0
   -6.4269   -0.3578    1.2522 C   0  0  0  0  0  0  0  0  0  0  0  0
   -5.8854   -1.0045    0.1569 C   0  0  0  0  0  0  0  0  0  0  0  0
   -4.5810   -0.8552   -0.2490 C   0  0  0  0  0  0  0  0  0  0  0  0
   -4.0733   -1.5316   -1.3617 O   0  0  0  0  0  0  0  0  0  0  0  0
   -4.9649   -2.3794   -2.0583 C   0  0  0  0  0  0  0  0  0  0  0  0
   -2.3581    1.9388   -3.9115 H   0  0  0  0  0  0  0  0  0  0  0  0
   -3.8427    1.2627   -3.2135 H   0  0  0  0  0  0  0  0  0  0  0  0
   -2.4049    0.2232   -3.2154 H   0  0  0  0  0  0  0  0  0  0  0  0
   -1.5433    2.6664   -1.9404 H   0  0  0  0  0  0  0  0  0  0  0  0
   -3.7337    3.5145   -1.8574 H   0  0  0  0  0  0  0  0  0  0  0  0
   -4.4568    2.0348   -1.2476 H   0  0  0  0  0  0  0  0  0  0  0  0
   -3.2888    3.0635   -0.2218 H   0  0  0  0  0  0  0  0  0  0  0  0
    0.4711    1.9669   -2.3160 H   0  0  0  0  0  0  0  0  0  0  0  0
    2.7686    2.0962   -2.8280 H   0  0  0  0  0  0  0  0  0  0  0  0
    5.0798    1.3902   -2.4573 H   0  0  0  0  0  0  0  0  0  0  0  0
    6.0161   -1.4771   -0.3285 H   0  0  0  0  0  0  0  0  0  0  0  0
    6.5306   -0.3340   -1.6616 H   0  0  0  0  0  0  0  0  0  0  0  0
    8.5459   -0.4731    0.3567 H   0  0  0  0  0  0  0  0  0  0  0  0
    7.9454    1.8507    1.9186 H   0  0  0  0  0  0  0  0  0  0  0  0
    3.7873   -1.2965    0.6000 H   0  0  0  0  0  0  0  0  0  0  0  0
    0.2881   -2.7464    0.5590 H   0  0  0  0  0  0  0  0  0  0  0  0
    1.1044   -2.3891   -0.9731 H   0  0  0  0  0  0  0  0  0  0  0  0
    2.0909   -2.7378    0.4604 H   0  0  0  0  0  0  0  0  0  0  0  0
    2.3440   -1.1382    2.2111 H   0  0  0  0  0  0  0  0  0  0  0  0
    1.5093   -1.9576    4.1640 H   0  0  0  0  0  0  0  0  0  0  0  0
   -0.0382   -2.8089    3.8502 H   0  0  0  0  0  0  0  0  0  0  0  0
    1.3116   -2.9806    2.7160 H   0  0  0  0  0  0  0  0  0  0  0  0
    0.2497    0.7450    3.9808 H   0  0  0  0  0  0  0  0  0  0  0  0
   -5.9205    1.0276    2.8332 H   0  0  0  0  0  0  0  0  0  0  0  0
   -7.4383   -0.4631    1.5793 H   0  0  0  0  0  0  0  0  0  0  0  0
   -6.5438   -1.6642   -0.4024 H   0  0  0  0  0  0  0  0  0  0  0  0
   -4.5244   -2.8282   -2.9512 H   0  0  0  0  0  0  0  0  0  0  0  0
   -5.3307   -3.1313   -1.3242 H   0  0  0  0  0  0  0  0  0  0  0  0
   -5.8614   -1.7744   -2.3562 H   0  0  0  0  0  0  0  0  0  0  0  0
  1  2  1  0
  2  3  1  0
  2  4  1  0
  4  5  1  0
  5  6  1  0
  6  7  1  0
  7  8  2  0
  8  9  1  0
  9 10  2  0
 10 11  1  0
 11 12  1  0
 12 13  2  0
 12 14  1  0
 14 15  1  0
 10 16  1  0
 16 17  2  0
 17 18  1  0
 18 19  1  6
 18 20  1  0
 20 21  1  0
 21 22  1  0
 20 23  1  0
 23 24  1  0
 23 25  2  0
 18 26  1  0
 26 27  1  0
 27 28  2  0
 28 29  1  0
 29 30  2  0
 30 31  1  0
 30 32  1  0
 32 33  2  0
 33 34  1  0
 34 35  2  0
 35 36  1  0
 36 37  1  0
 28  4  1  0
 35 29  1  0
 26  5  2  0
 17  7  1  0
  1 38  1  0
  1 39  1  0
  1 40  1  0
  2 41  1  0
  3 42  1  0
  3 43  1  0
  3 44  1  0
  6 45  1  0
  8 46  1  0
  9 47  1  0
 11 48  1  0
 11 49  1  0
 14 50  1  0
 15 51  1  0
 16 52  1  0
 19 53  1  0
 19 54  1  0
 19 55  1  0
 20 56  1  6
 22 57  1  0
 22 58  1  0
 22 59  1  0
 24 60  1  0
 32 61  1  0
 33 62  1  0
 34 63  1  0
 37 64  1  0
 37 65  1  0
 37 66  1  0
M  END
$$$$
[H]OC1([H])C([H])(c2c([H])c([H])c([H])c([H])c2[H])C(=O)N(C([H])([H])C([H])([H])SC([H])(C([H])([H])[H])C([H])([H])[H])C1([H])C([H])([H])c1c([H])c([H])c(Cl)c([H])c1[H]
     RDKit          3D

 53 55  0  0  0  0  0  0  0  0999 V2000
    5.0887    0.0998    0.7467 C   0  0  0  0  0  0  0  0  0  0  0  0
    3.8398    0.9213    0.4465 C   0  0  0  0  0  0  0  0  0  0  0  0
    4.1196    2.4032    0.6581 C   0  0  0  0  0  0  0  0  0  0  0  0
    2.4721    0.4692    1.5105 S   0  0  0  0  0  0  0  0  0  0  0  0
    1.8633   -1.2105    1.2243 C   0  0  0  0  0  0  0  0  0  0  0  0
    1.2269   -1.3221   -0.1135 C   0  0  0  0  0  0  0  0  0  0  0  0
    0.0733   -0.4473   -0.3085 N   0  0  0  0  0  0  0  0  0  0  0  0
   -1.3059   -0.5814   -0.0892 C   0  0  0  0  0  0  0  0  0  0  0  0
   -1.9408   -1.5520    0.7799 C   0  0  0  0  0  0  0  0  0  0  0  0
   -1.8284   -2.9902    0.5897 C   0  0  0  0  0  0  0  0  0  0  0  0
   -0.9810   -3.7544    1.3542 C   0  0  0  0  0  0  0  0  0  0  0  0
   -0.8280   -5.1075    1.2231 C   0  0  0  0  0  0  0  0  0  0  0  0
   -1.5811   -5.7438    0.2526 C   0  0  0  0  0  0  0  0  0  0  0  0
   -1.4230   -7.4718    0.0433 Cl  0  0  0  0  0  0  0  0  0  0  0  0
   -2.4509   -5.0109   -0.5434 C   0  0  0  0  0  0  0  0  0  0  0  0
   -2.5711   -3.6628   -0.3774 C   0  0  0  0  0  0  0  0  0  0  0  0
   -1.6408    0.8125    0.5295 C   0  0  0  0  0  0  0  0  0  0  0  0
   -1.3197    0.7201    1.8818 O   0  0  0  0  0  0  0  0  0  0  0  0
   -0.6933    1.7647   -0.1071 C   0  0  0  0  0  0  0  0  0  0  0  0
    0.2226    0.9041   -0.8653 C   0  0  0  0  0  0  0  0  0  0  0  0
    1.0157    1.2010   -1.8244 O   0  0  0  0  0  0  0  0  0  0  0  0
   -1.3339    2.7997   -0.9273 C   0  0  0  0  0  0  0  0  0  0  0  0
   -1.1034    4.1270   -0.6324 C   0  0  0  0  0  0  0  0  0  0  0  0
   -1.6595    5.1547   -1.3479 C   0  0  0  0  0  0  0  0  0  0  0  0
   -2.4822    4.8479   -2.4050 C   0  0  0  0  0  0  0  0  0  0  0  0
   -2.7403    3.5468   -2.7356 C   0  0  0  0  0  0  0  0  0  0  0  0
   -2.1648    2.5176   -1.9952 C   0  0  0  0  0  0  0  0  0  0  0  0
    4.9058   -0.9372    0.3939 H   0  0  0  0  0  0  0  0  0  0  0  0
    5.3335    0.1053    1.8361 H   0  0  0  0  0  0  0  0  0  0  0  0
    5.9516    0.4936    0.2054 H   0  0  0  0  0  0  0  0  0  0  0  0
    3.5840    0.6955   -0.6025 H   0  0  0  0  0  0  0  0  0  0  0  0
    3.1900    2.8892    1.0061 H   0  0  0  0  0  0  0  0  0  0  0  0
    4.3772    2.8367   -0.3321 H   0  0  0  0  0  0  0  0  0  0  0  0
    4.9514    2.5515    1.3800 H   0  0  0  0  0  0  0  0  0  0  0  0
    1.0699   -1.3692    2.0147 H   0  0  0  0  0  0  0  0  0  0  0  0
    2.6529   -1.9596    1.3866 H   0  0  0  0  0  0  0  0  0  0  0  0
    2.0109   -1.0097   -0.9005 H   0  0  0  0  0  0  0  0  0  0  0  0
    0.9350   -2.3382   -0.3996 H   0  0  0  0  0  0  0  0  0  0  0  0
   -1.8725   -0.4892   -1.0894 H   0  0  0  0  0  0  0  0  0  0  0  0
   -3.0681   -1.3469    0.7568 H   0  0  0  0  0  0  0  0  0  0  0  0
   -1.7119   -1.2668    1.8691 H   0  0  0  0  0  0  0  0  0  0  0  0
   -0.3851   -3.2554    2.1242 H   0  0  0  0  0  0  0  0  0  0  0  0
   -0.1427   -5.6813    1.8512 H   0  0  0  0  0  0  0  0  0  0  0  0
   -3.0192   -5.5483   -1.2884 H   0  0  0  0  0  0  0  0  0  0  0  0
   -3.2353   -3.0619   -0.9763 H   0  0  0  0  0  0  0  0  0  0  0  0
   -2.6835    1.0661    0.3570 H   0  0  0  0  0  0  0  0  0  0  0  0
   -2.0675    0.8502    2.4865 H   0  0  0  0  0  0  0  0  0  0  0  0
   -0.0405    2.2861    0.6604 H   0  0  0  0  0  0  0  0  0  0  0  0
   -0.4486    4.3997    0.2096 H   0  0  0  0  0  0  0  0  0  0  0  0
   -1.4768    6.1784   -1.1137 H   0  0  0  0  0  0  0  0  0  0  0  0
   -2.9173    5.6551   -2.9646 H   0  0  0  0  0  0  0  0  0  0  0  0
   -3.3853    3.3059   -3.5650 H   0  0  0  0  0  0  0  0  0  0  0  0
   -2.3816    1.5154   -2.2737 H   0  0  0  0  0  0  0  0  0  0  0  0
  1  2  1  0
  2  3  1  0
  2  4  1  0
  4  5  1  0
  5  6  1  0
  6  7  1  0
  7  8  1  0
  8  9  1  0
  9 10  1  0
 10 11  2  0
 11 12  1  0
 12 13  2  0
 13 14  1  0
 13 15  1  0
 15 16  2  0
  8 17  1  0
 17 18  1  0
 17 19  1  0
 19 20  1  0
 20 21  2  0
 19 22  1  0
 22 23  2  0
 23 24  1  0
 24 25  2  0
 25 26  1  0
 26 27  2  0
 20  7  1  0
 27 22  1  0
 16 10  1  0
  1 28  1  0
  1 29  1  0
  1 30  1  0
  2 31  1  0
  3 32  1  0
  3 33  1  0
  3 34  1  0
  5 35  1  0
  5 36  1  0
  6 37  1  0
  6 38  1  0
  8 39  1  0
  9 40  1  0
  9 41  1  0
 11 42  1  0
 12 43  1  0
 15 44  1  0
 16 45  1  0
 17 46  1  0
 18 47  1  0
 19 48  1  0
 23 49  1  0
 24 50  1  0
 25 51  1  0
 26 52  1  0
 27 53  1  0
M  END
$$$$
[H]c1nn(C([H])([H])C([H])([H])N(c2nc([H])c(C3([H])C([H])([H])C([H])([H])C([H])([H])C3([H])[H])c([H])c2[H])C([H])(C([H])([H])[H])C([H])([H])[H])c([H])c1-c1c([H])c([H])c2c(c([H])nn2[H])c1[H]
     RDKit          3D

 61 65  0  0  0  0  0  0  0  0999 V2000
    0.5655    0.1956   -1.5744 C   0  0  0  0  0  0  0  0  0  0  0  0
    0.1202    1.4798   -0.9603 C   0  0  0  0  0  0  0  0  0  0  0  0
    1.2274    2.5229   -0.9803 C   0  0  0  0  0  0  0  0  0  0  0  0
   -0.5183    1.3972    0.3263 N   0  0  0  0  0  0  0  0  0  0  0  0
   -0.0852    1.6027    1.6170 C   0  0  0  0  0  0  0  0  0  0  0  0
    0.8183    0.8534    2.4492 C   0  0  0  0  0  0  0  0  0  0  0  0
    2.1712    0.7552    2.0073 N   0  0  0  0  0  0  0  0  0  0  0  0
    2.8140   -0.1779    1.2890 C   0  0  0  0  0  0  0  0  0  0  0  0
    4.1357    0.1590    1.0984 C   0  0  0  0  0  0  0  0  0  0  0  0
    4.2674    1.3688    1.7507 C   0  0  0  0  0  0  0  0  0  0  0  0
    3.0807    1.6815    2.2724 N   0  0  0  0  0  0  0  0  0  0  0  0
    5.1980   -0.5543    0.3820 C   0  0  0  0  0  0  0  0  0  0  0  0
    4.9000   -1.3173   -0.7079 C   0  0  0  0  0  0  0  0  0  0  0  0
    5.8969   -2.0008   -1.4020 C   0  0  0  0  0  0  0  0  0  0  0  0
    7.2240   -1.9257   -1.0049 C   0  0  0  0  0  0  0  0  0  0  0  0
    8.3716   -2.4487   -1.4503 N   0  0  0  0  0  0  0  0  0  0  0  0
    9.3511   -2.0285   -0.6680 N   0  0  0  0  0  0  0  0  0  0  0  0
    8.8960   -1.2355    0.2942 C   0  0  0  0  0  0  0  0  0  0  0  0
    7.5323   -1.1440    0.1122 C   0  0  0  0  0  0  0  0  0  0  0  0
    6.5189   -0.4845    0.7705 C   0  0  0  0  0  0  0  0  0  0  0  0
   -1.9282    0.9917    0.2022 C   0  0  0  0  0  0  0  0  0  0  0  0
   -2.9290    1.9121    0.0057 C   0  0  0  0  0  0  0  0  0  0  0  0
   -4.2565    1.5563   -0.1138 C   0  0  0  0  0  0  0  0  0  0  0  0
   -4.5974    0.2055   -0.0315 C   0  0  0  0  0  0  0  0  0  0  0  0
   -3.5865   -0.6769    0.1630 C   0  0  0  0  0  0  0  0  0  0  0  0
   -2.2895   -0.2994    0.2769 N   0  0  0  0  0  0  0  0  0  0  0  0
   -6.0169   -0.1310   -0.1653 C   0  0  0  0  0  0  0  0  0  0  0  0
   -6.3327   -1.1603   -1.2076 C   0  0  0  0  0  0  0  0  0  0  0  0
   -7.8090   -1.4456   -0.8991 C   0  0  0  0  0  0  0  0  0  0  0  0
   -7.9228   -1.3131    0.6158 C   0  0  0  0  0  0  0  0  0  0  0  0
   -6.5826   -0.7868    1.0927 C   0  0  0  0  0  0  0  0  0  0  0  0
   -0.1034   -0.1630   -2.4064 H   0  0  0  0  0  0  0  0  0  0  0  0
    1.5812    0.2843   -2.0595 H   0  0  0  0  0  0  0  0  0  0  0  0
    0.5383   -0.6378   -0.8348 H   0  0  0  0  0  0  0  0  0  0  0  0
   -0.6165    1.8999   -1.7259 H   0  0  0  0  0  0  0  0  0  0  0  0
    1.2902    3.0609   -1.9575 H   0  0  0  0  0  0  0  0  0  0  0  0
    0.9623    3.2893   -0.2296 H   0  0  0  0  0  0  0  0  0  0  0  0
    2.2292    2.0788   -0.8247 H   0  0  0  0  0  0  0  0  0  0  0  0
    0.2950    2.7232    1.6216 H   0  0  0  0  0  0  0  0  0  0  0  0
   -1.0296    1.7932    2.2723 H   0  0  0  0  0  0  0  0  0  0  0  0
    0.8800    1.3632    3.4783 H   0  0  0  0  0  0  0  0  0  0  0  0
    0.4263   -0.1601    2.7804 H   0  0  0  0  0  0  0  0  0  0  0  0
    2.3718   -1.1065    0.8876 H   0  0  0  0  0  0  0  0  0  0  0  0
    5.1900    1.9376    1.8081 H   0  0  0  0  0  0  0  0  0  0  0  0
    3.8758   -1.4030   -1.0509 H   0  0  0  0  0  0  0  0  0  0  0  0
    5.6751   -2.6099   -2.2685 H   0  0  0  0  0  0  0  0  0  0  0  0
    8.4247   -3.0752   -2.2788 H   0  0  0  0  0  0  0  0  0  0  0  0
    9.4182   -0.7302    1.0883 H   0  0  0  0  0  0  0  0  0  0  0  0
    6.7867    0.1112    1.6298 H   0  0  0  0  0  0  0  0  0  0  0  0
   -2.6825    2.9601   -0.0604 H   0  0  0  0  0  0  0  0  0  0  0  0
   -4.9921    2.3320   -0.2675 H   0  0  0  0  0  0  0  0  0  0  0  0
   -3.7987   -1.7249    0.2325 H   0  0  0  0  0  0  0  0  0  0  0  0
   -6.6546    0.7463   -0.3478 H   0  0  0  0  0  0  0  0  0  0  0  0
   -5.7799   -2.1062   -1.0543 H   0  0  0  0  0  0  0  0  0  0  0  0
   -6.2950   -0.7712   -2.2350 H   0  0  0  0  0  0  0  0  0  0  0  0
   -8.4600   -0.6548   -1.3476 H   0  0  0  0  0  0  0  0  0  0  0  0
   -8.1153   -2.4379   -1.2602 H   0  0  0  0  0  0  0  0  0  0  0  0
   -8.2103   -2.2674    1.0948 H   0  0  0  0  0  0  0  0  0  0  0  0
   -8.7314   -0.5786    0.8880 H   0  0  0  0  0  0  0  0  0  0  0  0
   -5.9583   -1.6398    1.4013 H   0  0  0  0  0  0  0  0  0  0  0  0
   -6.7520   -0.0653    1.8983 H   0  0  0  0  0  0  0  0  0  0  0  0
  1  2  1  0
  2  3  1  0
  2  4  1  0
  4  5  1  0
  5  6  1  0
  6  7  1  0
  7  8  1  0
  8  9  2  0
  9 10  1  0
 10 11  2  0
  9 12  1  0
 12 13  2  0
 13 14  1  0
 14 15  2  0
 15 16  1  0
 16 17  1  0
 17 18  2  0
 18 19  1  0
 19 20  2  0
  4 21  1  0
 21 22  2  0
 22 23  1  0
 23 24  2  0
 24 25  1  0
 25 26  2  0
 24 27  1  0
 27 28  1  0
 28 29  1  0
 29 30  1  0
 30 31  1  0
 11  7  1  0
 20 12  1  0
 26 21  1  0
 31 27  1  0
 19 15  1  0
  1 32  1  0
  1 33  1  0
  1 34  1  0
  2 35  1  0
  3 36  1  0
  3 37  1  0
  3 38  1  0
  5 39  1  0
  5 40  1  0
  6 41  1  0
  6 42  1  0
  8 43  1  0
 10 44  1  0
 13 45  1  0
 14 46  1  0
 16 47  1  0
 18 48  1  0
 20 49  1  0
 22 50  1  0
 23 51  1  0
 25 52  1  0
 27 53  1  0
 28 54  1  0
 28 55  1  0
 29 56  1  0
 29 57  1  0
 30 58  1  0
 30 59  1  0
 31 60  1  0
 31 61  1  0
M  END
$$$$
[H]OC(=O)C(=NN([H])S(=O)(=O)c1c([H])c([H])c(OC([H])([H])[H])c(OC([H])([H])[H])c1[H])/C([H])=C(\[H])c1c([H])c([H])c(F)c([H])c1[H]
     RDKit          3D

 45 46  0  0  0  0  0  0  0  0999 V2000
   -4.9980   -2.6634    1.6960 C   0  0  0  0  0  0  0  0  0  0  0  0
   -5.2111   -1.3416    1.2517 O   0  0  0  0  0  0  0  0  0  0  0  0
   -4.2606   -0.7848    0.4084 C   0  0  0  0  0  0  0  0  0  0  0  0
   -3.1349   -1.4623   -0.0050 C   0  0  0  0  0  0  0  0  0  0  0  0
   -2.1973   -0.9080   -0.8390 C   0  0  0  0  0  0  0  0  0  0  0  0
   -2.3449    0.3694   -1.3051 C   0  0  0  0  0  0  0  0  0  0  0  0
   -3.4702    1.0677   -0.9012 C   0  0  0  0  0  0  0  0  0  0  0  0
   -4.4179    0.5140   -0.0610 C   0  0  0  0  0  0  0  0  0  0  0  0
   -5.5499    1.2297    0.3397 O   0  0  0  0  0  0  0  0  0  0  0  0
   -5.7058    2.5490   -0.1396 C   0  0  0  0  0  0  0  0  0  0  0  0
   -1.1858    1.1293   -2.3690 S   0  0  0  0  0  0  0  0  0  0  0  0
   -0.5218    0.0996   -3.2523 O   0  0  0  0  0  0  0  0  0  0  0  0
   -1.9310    2.0815   -3.2753 O   0  0  0  0  0  0  0  0  0  0  0  0
    0.0243    1.9532   -1.4812 N   0  0  0  0  0  0  0  0  0  0  0  0
    1.1934    1.3256   -1.0793 N   0  0  0  0  0  0  0  0  0  0  0  0
    1.5481    1.1928    0.1349 C   0  0  0  0  0  0  0  0  0  0  0  0
    2.7975    0.5163    0.4540 C   0  0  0  0  0  0  0  0  0  0  0  0
    3.5971    0.0231   -0.4807 C   0  0  0  0  0  0  0  0  0  0  0  0
    4.8526   -0.6596   -0.2151 C   0  0  0  0  0  0  0  0  0  0  0  0
    5.3684   -0.8800    1.0307 C   0  0  0  0  0  0  0  0  0  0  0  0
    6.5767   -1.5397    1.2372 C   0  0  0  0  0  0  0  0  0  0  0  0
    7.2963   -1.9962    0.1523 C   0  0  0  0  0  0  0  0  0  0  0  0
    8.4828   -2.6450    0.3354 F   0  0  0  0  0  0  0  0  0  0  0  0
    6.7895   -1.7818   -1.1131 C   0  0  0  0  0  0  0  0  0  0  0  0
    5.5886   -1.1244   -1.2850 C   0  0  0  0  0  0  0  0  0  0  0  0
    0.7351    1.7006    1.2085 C   0  0  0  0  0  0  0  0  0  0  0  0
   -0.4661    2.3610    1.0889 O   0  0  0  0  0  0  0  0  0  0  0  0
    1.1419    1.5383    2.4104 O   0  0  0  0  0  0  0  0  0  0  0  0
   -4.0270   -2.7077    2.2084 H   0  0  0  0  0  0  0  0  0  0  0  0
   -5.7780   -3.0314    2.3703 H   0  0  0  0  0  0  0  0  0  0  0  0
   -4.9258   -3.2985    0.7947 H   0  0  0  0  0  0  0  0  0  0  0  0
   -3.0035   -2.4717    0.3541 H   0  0  0  0  0  0  0  0  0  0  0  0
   -1.3170   -1.4700   -1.1482 H   0  0  0  0  0  0  0  0  0  0  0  0
   -3.6074    2.0807   -1.2581 H   0  0  0  0  0  0  0  0  0  0  0  0
   -4.9585    3.1859    0.3631 H   0  0  0  0  0  0  0  0  0  0  0  0
   -6.7441    2.8627    0.1205 H   0  0  0  0  0  0  0  0  0  0  0  0
   -5.5893    2.5722   -1.2456 H   0  0  0  0  0  0  0  0  0  0  0  0
   -0.1425    2.9566   -1.2518 H   0  0  0  0  0  0  0  0  0  0  0  0
    3.1143    0.3946    1.4795 H   0  0  0  0  0  0  0  0  0  0  0  0
    3.2428    0.1661   -1.4965 H   0  0  0  0  0  0  0  0  0  0  0  0
    4.8516   -0.5476    1.8952 H   0  0  0  0  0  0  0  0  0  0  0  0
    6.9868   -1.7153    2.2219 H   0  0  0  0  0  0  0  0  0  0  0  0
    7.3623   -2.1436   -1.9444 H   0  0  0  0  0  0  0  0  0  0  0  0
    5.1914   -0.9575   -2.2981 H   0  0  0  0  0  0  0  0  0  0  0  0
   -1.2528    2.2604    1.6915 H   0  0  0  0  0  0  0  0  0  0  0  0
  1  2  1  0
  2  3  1  0
  3  4  2  0
  4  5  1  0
  5  6  2  0
  6  7  1  0
  7  8  2  0
  8  9  1  0
  9 10  1  0
  6 11  1  0
 11 12  2  0
 11 13  2  0
 11 14  1  0
 14 15  1  0
 15 16  2  0
 16 17  1  0
 17 18  2  0
 18 19  1  0
 19 20  2  0
 20 21  1  0
 21 22  2  0
 22 23  1  0
 22 24  1  0
 24 25  2  0
 16 26  1  0
 26 27  1  0
 26 28  2  0
  8  3  1  0
 25 19  1  0
  1 29  1  0
  1 30  1  0
  1 31  1  0
  4 32  1  0
  5 33  1  0
  7 34  1  0
 10 35  1  0
 10 36  1  0
 10 37  1  0
 14 38  1  0
 17 39  1  0
 18 40  1  0
 20 41  1  0
 21 42  1  0
 24 43  1  0
 25 44  1  0
 27 45  1  0
M  END
$$$$
[H]Oc1c([H])c([H])c([H])c([H])c1C([H])([H])C([H])(n1c2nc([H])c([H])c([H])c2c2c([H])c([H])c([H])c([H])c21)C([H])([H])OC([H])(C([H])([H])[H])C([H])([H])[H]
     RDKit          3D

 51 54  0  0  0  0  0  0  0  0999 V2000
   -1.8424   -3.6781   -0.4874 C   0  0  0  0  0  0  0  0  0  0  0  0
   -1.2622   -2.4809    0.3142 C   0  0  0  0  0  0  0  0  0  0  0  0
   -1.4161   -2.9123    1.7775 C   0  0  0  0  0  0  0  0  0  0  0  0
   -1.7982   -1.3435    0.0037 O   0  0  0  0  0  0  0  0  0  0  0  0
   -1.4610   -0.2195   -0.5381 C   0  0  0  0  0  0  0  0  0  0  0  0
   -0.4027    0.6273    0.0605 C   0  0  0  0  0  0  0  0  0  0  0  0
   -0.1703    1.9581   -0.6581 C   0  0  0  0  0  0  0  0  0  0  0  0
   -1.3351    2.8365   -0.7164 C   0  0  0  0  0  0  0  0  0  0  0  0
   -1.6010    3.6773    0.3772 C   0  0  0  0  0  0  0  0  0  0  0  0
   -2.7279    4.4637    0.4317 C   0  0  0  0  0  0  0  0  0  0  0  0
   -3.6347    4.4486   -0.5933 C   0  0  0  0  0  0  0  0  0  0  0  0
   -3.4047    3.6402   -1.6769 C   0  0  0  0  0  0  0  0  0  0  0  0
   -2.2522    2.8402   -1.7291 C   0  0  0  0  0  0  0  0  0  0  0  0
   -2.1018    2.0607   -2.8878 O   0  0  0  0  0  0  0  0  0  0  0  0
    0.9123   -0.0233    0.1838 N   0  0  0  0  0  0  0  0  0  0  0  0
    1.5888   -0.2659    1.3134 C   0  0  0  0  0  0  0  0  0  0  0  0
    1.2736   -0.0144    2.6496 C   0  0  0  0  0  0  0  0  0  0  0  0
    2.2001   -0.3824    3.5901 C   0  0  0  0  0  0  0  0  0  0  0  0
    3.4087   -0.9813    3.2573 C   0  0  0  0  0  0  0  0  0  0  0  0
    3.6916   -1.2166    1.9283 C   0  0  0  0  0  0  0  0  0  0  0  0
    2.7785   -0.8570    0.9597 C   0  0  0  0  0  0  0  0  0  0  0  0
    2.8200   -0.9726   -0.4078 C   0  0  0  0  0  0  0  0  0  0  0  0
    3.7294   -1.4715   -1.3154 C   0  0  0  0  0  0  0  0  0  0  0  0
    3.4412   -1.4294   -2.6410 C   0  0  0  0  0  0  0  0  0  0  0  0
    2.2591   -0.8997   -3.1123 C   0  0  0  0  0  0  0  0  0  0  0  0
    1.3797   -0.4161   -2.2203 N   0  0  0  0  0  0  0  0  0  0  0  0
    1.6268   -0.4391   -0.9013 C   0  0  0  0  0  0  0  0  0  0  0  0
   -1.4744   -4.5759    0.0445 H   0  0  0  0  0  0  0  0  0  0  0  0
   -1.4714   -3.6999   -1.5085 H   0  0  0  0  0  0  0  0  0  0  0  0
   -2.9268   -3.6874   -0.4755 H   0  0  0  0  0  0  0  0  0  0  0  0
   -0.1833   -2.5633    0.1066 H   0  0  0  0  0  0  0  0  0  0  0  0
   -1.1254   -3.9843    1.8543 H   0  0  0  0  0  0  0  0  0  0  0  0
   -2.4510   -2.7805    2.0854 H   0  0  0  0  0  0  0  0  0  0  0  0
   -0.7279   -2.3528    2.4041 H   0  0  0  0  0  0  0  0  0  0  0  0
   -2.3930    0.4635   -0.5403 H   0  0  0  0  0  0  0  0  0  0  0  0
   -1.2471   -0.3950   -1.6529 H   0  0  0  0  0  0  0  0  0  0  0  0
   -0.7314    0.9105    1.0885 H   0  0  0  0  0  0  0  0  0  0  0  0
    0.6038    2.4760   -0.0163 H   0  0  0  0  0  0  0  0  0  0  0  0
    0.3211    1.8401   -1.6335 H   0  0  0  0  0  0  0  0  0  0  0  0
   -0.9147    3.7223    1.2073 H   0  0  0  0  0  0  0  0  0  0  0  0
   -2.9200    5.1071    1.2814 H   0  0  0  0  0  0  0  0  0  0  0  0
   -4.5368    5.0818   -0.5400 H   0  0  0  0  0  0  0  0  0  0  0  0
   -4.0963    3.5982   -2.5084 H   0  0  0  0  0  0  0  0  0  0  0  0
   -1.2773    1.5226   -3.0110 H   0  0  0  0  0  0  0  0  0  0  0  0
    0.3275    0.4516    2.8716 H   0  0  0  0  0  0  0  0  0  0  0  0
    1.9458   -0.1819    4.6373 H   0  0  0  0  0  0  0  0  0  0  0  0
    4.0747   -1.2359    4.0699 H   0  0  0  0  0  0  0  0  0  0  0  0
    4.6370   -1.6828    1.6905 H   0  0  0  0  0  0  0  0  0  0  0  0
    4.6412   -1.8756   -0.8922 H   0  0  0  0  0  0  0  0  0  0  0  0
    4.1747   -1.8286   -3.3297 H   0  0  0  0  0  0  0  0  0  0  0  0
    2.0520   -0.8787   -4.1946 H   0  0  0  0  0  0  0  0  0  0  0  0
  1  2  1  0
  2  3  1  0
  2  4  1  0
  4  5  1  0
  5  6  1  0
  6  7  1  0
  7  8  1  0
  8  9  2  0
  9 10  1  0
 10 11  2  0
 11 12  1  0
 12 13  2  0
 13 14  1  0
  6 15  1  0
 15 16  1  0
 16 17  2  0
 17 18  1  0
 18 19  2  0
 19 20  1  0
 20 21  2  0
 21 22  1  0
 22 23  2  0
 23 24  1  0
 24 25  2  0
 25 26  1  0
 26 27  2  0
 13  8  1  0
 27 15  1  0
 21 16  1  0
 27 22  1  0
  1 28  1  0
  1 29  1  0
  1 30  1  0
  2 31  1  0
  3 32  1  0
  3 33  1  0
  3 34  1  0
  5 35  1  0
  5 36  1  0
  6 37  1  0
  7 38  1  0
  7 39  1  0
  9 40  1  0
 10 41  1  0
 11 42  1  0
 12 43  1  0
 14 44  1  0
 17 45  1  0
 18 46  1  0
 19 47  1  0
 20 48  1  0
 23 49  1  0
 24 50  1  0
 25 51  1  0
M  END
$$$$
[H]C1=C([H])c2nc(C([H])([H])[H])c(C([H])([H])[H])c(F)c2[C@]([H])(C([H])([H])[H])N([H])C(=O)c2c([H])c([H])c(F)c(c2[H])C(c2c([H])c([H])c(C(F)(F)F)c([H])c2[H])=C1[H]
     RDKit          3D

 56 59  0  0  0  0  0  0  0  0999 V2000
   -3.3691   -3.3575   -0.9348 C   0  0  0  0  0  0  0  0  0  0  0  0
   -3.1611   -1.9110   -0.5529 C   0  0  0  0  0  0  0  0  0  0  0  0
   -2.4799   -1.6081    0.5046 N   0  0  0  0  0  0  0  0  0  0  0  0
   -2.1826   -0.3382    1.0073 C   0  0  0  0  0  0  0  0  0  0  0  0
   -1.3880   -0.3520    2.2324 C   0  0  0  0  0  0  0  0  0  0  0  0
   -0.1199   -0.5102    2.5843 C   0  0  0  0  0  0  0  0  0  0  0  0
    1.1008   -0.7643    1.8591 C   0  0  0  0  0  0  0  0  0  0  0  0
    1.8814   -0.0209    1.0678 C   0  0  0  0  0  0  0  0  0  0  0  0
    1.7160    1.4140    0.6828 C   0  0  0  0  0  0  0  0  0  0  0  0
    0.5152    2.0833    0.6924 C   0  0  0  0  0  0  0  0  0  0  0  0
    0.3297    3.2097   -0.0457 C   0  0  0  0  0  0  0  0  0  0  0  0
    1.4039    3.7227   -0.8086 C   0  0  0  0  0  0  0  0  0  0  0  0
    2.6385    3.1135   -0.8336 C   0  0  0  0  0  0  0  0  0  0  0  0
    2.7539    1.9563   -0.0695 C   0  0  0  0  0  0  0  0  0  0  0  0
    4.0614    1.5017    0.0652 F   0  0  0  0  0  0  0  0  0  0  0  0
   -0.9793    3.8608   -0.3650 C   0  0  0  0  0  0  0  0  0  0  0  0
   -1.0095    5.1180   -0.6083 O   0  0  0  0  0  0  0  0  0  0  0  0
   -2.2460    3.1337   -0.4198 N   0  0  0  0  0  0  0  0  0  0  0  0
   -2.6842    2.1884    0.5556 C   0  0  1  0  0  0  0  0  0  0  0  0
   -4.1975    2.6001    0.7732 C   0  0  0  0  0  0  0  0  0  0  0  0
   -2.6904    0.7246    0.2704 C   0  0  0  0  0  0  0  0  0  0  0  0
   -3.4347    0.4004   -0.8882 C   0  0  0  0  0  0  0  0  0  0  0  0
   -3.9900    1.3662   -1.6785 F   0  0  0  0  0  0  0  0  0  0  0  0
   -3.6767   -0.8823   -1.3087 C   0  0  0  0  0  0  0  0  0  0  0  0
   -4.4600   -1.2191   -2.5201 C   0  0  0  0  0  0  0  0  0  0  0  0
    2.9425   -0.8833    0.4497 C   0  0  0  0  0  0  0  0  0  0  0  0
    3.2866   -0.8851   -0.8710 C   0  0  0  0  0  0  0  0  0  0  0  0
    4.2872   -1.6996   -1.3833 C   0  0  0  0  0  0  0  0  0  0  0  0
    4.9918   -2.5585   -0.5789 C   0  0  0  0  0  0  0  0  0  0  0  0
    4.6443   -2.5579    0.7602 C   0  0  0  0  0  0  0  0  0  0  0  0
    3.6584   -1.7559    1.2716 C   0  0  0  0  0  0  0  0  0  0  0  0
    6.0496   -3.4394   -1.1147 C   0  0  0  0  0  0  0  0  0  0  0  0
    6.1701   -3.2102   -2.4596 F   0  0  0  0  0  0  0  0  0  0  0  0
    7.2366   -3.1218   -0.5106 F   0  0  0  0  0  0  0  0  0  0  0  0
    5.7282   -4.7776   -0.9748 F   0  0  0  0  0  0  0  0  0  0  0  0
   -2.5785   -3.6914   -1.6183 H   0  0  0  0  0  0  0  0  0  0  0  0
   -3.2939   -3.9561   -0.0258 H   0  0  0  0  0  0  0  0  0  0  0  0
   -4.3901   -3.4609   -1.3329 H   0  0  0  0  0  0  0  0  0  0  0  0
   -2.0604   -0.2874    3.1542 H   0  0  0  0  0  0  0  0  0  0  0  0
    0.0554   -0.4245    3.7204 H   0  0  0  0  0  0  0  0  0  0  0  0
    1.4631   -1.8279    2.0036 H   0  0  0  0  0  0  0  0  0  0  0  0
   -0.2216    1.8793    1.5741 H   0  0  0  0  0  0  0  0  0  0  0  0
    1.2614    4.6468   -1.4032 H   0  0  0  0  0  0  0  0  0  0  0  0
    3.4746    3.4928   -1.3971 H   0  0  0  0  0  0  0  0  0  0  0  0
   -2.8664    3.3576   -1.2265 H   0  0  0  0  0  0  0  0  0  0  0  0
   -2.2959    2.4222    1.5931 H   0  0  0  0  0  0  0  0  0  0  0  0
   -4.5328    3.1954   -0.0949 H   0  0  0  0  0  0  0  0  0  0  0  0
   -4.2979    3.2105    1.6800 H   0  0  0  0  0  0  0  0  0  0  0  0
   -4.7937    1.6799    0.7777 H   0  0  0  0  0  0  0  0  0  0  0  0
   -5.3332   -1.8654   -2.2895 H   0  0  0  0  0  0  0  0  0  0  0  0
   -4.8894   -0.2662   -2.9100 H   0  0  0  0  0  0  0  0  0  0  0  0
   -3.8673   -1.7404   -3.2812 H   0  0  0  0  0  0  0  0  0  0  0  0
    2.7458   -0.2621   -1.5678 H   0  0  0  0  0  0  0  0  0  0  0  0
    4.5157   -1.6561   -2.4299 H   0  0  0  0  0  0  0  0  0  0  0  0
    5.1676   -3.2153    1.4440 H   0  0  0  0  0  0  0  0  0  0  0  0
    3.4101   -1.7714    2.3269 H   0  0  0  0  0  0  0  0  0  0  0  0
  1  2  1  0
  2  3  2  0
  3  4  1  0
  4  5  1  0
  5  6  2  0
  6  7  1  0
  7  8  2  0
  8  9  1  0
  9 10  2  0
 10 11  1  0
 11 12  2  0
 12 13  1  0
 13 14  2  0
 14 15  1  0
 11 16  1  0
 16 17  2  0
 16 18  1  0
 18 19  1  0
 19 20  1  0
 19 21  1  0
 21 22  1  0
 22 23  1  0
 22 24  2  0
 24 25  1  0
  8 26  1  0
 26 27  2  0
 27 28  1  0
 28 29  2  0
 29 30  1  0
 30 31  2  0
 29 32  1  0
 32 33  1  0
 32 34  1  0
 32 35  1  0
 24  2  1  0
 31 26  1  0
 21  4  2  0
 14  9  1  0
  1 36  1  0
  1 37  1  0
  1 38  1  0
  5 39  1  0
  6 40  1  0
  7 41  1  0
 10 42  1  0
 12 43  1  0
 13 44  1  0
 18 45  1  0
 19 46  1  1
 20 47  1  0
 20 48  1  0
 20 49  1  0
 25 50  1  0
 25 51  1  0
 25 52  1  0
 27 53  1  0
 28 54  1  0
 30 55  1  0
 31 56  1  0
M  END
$$$$
[H]c1nc(N2C([H])([H])C([H])([H])N([H])C([H])([H])C2([H])[H])c([H])c(-c2c([H])c([H])c(N([H])C(=O)N([H])[C@]([H])(C(=O)N([H])C3([H])C([H])([H])C([H])([H])C([H])([H])C3([H])[H])c3nc(C([H])([H])[H])c([H])s3)c([H])c2[H])c1[H]
     RDKit          3D

 70 74  0  0  0  0  0  0  0  0999 V2000
   -6.2002   -1.7170    5.4810 C   0  0  0  0  0  0  0  0  0  0  0  0
   -5.4478   -0.6751    4.6681 C   0  0  0  0  0  0  0  0  0  0  0  0
   -5.1299    0.5314    5.2386 C   0  0  0  0  0  0  0  0  0  0  0  0
   -4.3209    1.3096    3.9409 S   0  0  0  0  0  0  0  0  0  0  0  0
   -4.4377    0.0679    2.7748 C   0  0  0  0  0  0  0  0  0  0  0  0
   -5.0927   -0.8787    3.4455 N   0  0  0  0  0  0  0  0  0  0  0  0
   -3.9641   -0.0111    1.3634 C   0  0  2  0  0  0  0  0  0  0  0  0
   -2.6241    0.5260    1.2949 N   0  0  0  0  0  0  0  0  0  0  0  0
   -1.5110   -0.2597    0.8146 C   0  0  0  0  0  0  0  0  0  0  0  0
   -1.7805   -1.4384    0.4638 O   0  0  0  0  0  0  0  0  0  0  0  0
   -0.2510    0.3437    0.7787 N   0  0  0  0  0  0  0  0  0  0  0  0
    0.9160   -0.2699    0.3206 C   0  0  0  0  0  0  0  0  0  0  0  0
    2.1226    0.3334    0.7104 C   0  0  0  0  0  0  0  0  0  0  0  0
    3.2879   -0.1958    0.2779 C   0  0  0  0  0  0  0  0  0  0  0  0
    3.3604   -1.3013   -0.5293 C   0  0  0  0  0  0  0  0  0  0  0  0
    2.1963   -1.8883   -0.9090 C   0  0  0  0  0  0  0  0  0  0  0  0
    0.9614   -1.3716   -0.4831 C   0  0  0  0  0  0  0  0  0  0  0  0
    4.6676   -1.8343   -0.9719 C   0  0  0  0  0  0  0  0  0  0  0  0
    4.8927   -3.1594   -1.2174 C   0  0  0  0  0  0  0  0  0  0  0  0
    6.1545   -3.5831   -1.6339 C   0  0  0  0  0  0  0  0  0  0  0  0
    7.1246   -2.6671   -1.7831 N   0  0  0  0  0  0  0  0  0  0  0  0
    6.9683   -1.3550   -1.5583 C   0  0  0  0  0  0  0  0  0  0  0  0
    5.7088   -0.9515   -1.1461 C   0  0  0  0  0  0  0  0  0  0  0  0
    8.0255   -0.4169   -1.7229 N   0  0  0  0  0  0  0  0  0  0  0  0
    9.2963   -0.9097   -2.1474 C   0  0  0  0  0  0  0  0  0  0  0  0
   10.3294    0.1307   -2.3937 C   0  0  0  0  0  0  0  0  0  0  0  0
    9.7524    1.3607   -2.8571 N   0  0  0  0  0  0  0  0  0  0  0  0
    8.8312    1.9223   -1.8872 C   0  0  0  0  0  0  0  0  0  0  0  0
    7.7792    0.9645   -1.4551 C   0  0  0  0  0  0  0  0  0  0  0  0
   -4.8168    0.7044    0.4013 C   0  0  0  0  0  0  0  0  0  0  0  0
   -4.3165    1.5711   -0.3617 O   0  0  0  0  0  0  0  0  0  0  0  0
   -6.2024    0.4471    0.3031 N   0  0  0  0  0  0  0  0  0  0  0  0
   -7.0118    1.1457   -0.6491 C   0  0  0  0  0  0  0  0  0  0  0  0
   -7.6434    2.3653    0.0619 C   0  0  0  0  0  0  0  0  0  0  0  0
   -8.6110    2.7897   -1.0400 C   0  0  0  0  0  0  0  0  0  0  0  0
   -9.2163    1.4660   -1.4981 C   0  0  0  0  0  0  0  0  0  0  0  0
   -8.1869    0.4127   -1.1731 C   0  0  0  0  0  0  0  0  0  0  0  0
   -6.4775   -2.5847    4.8784 H   0  0  0  0  0  0  0  0  0  0  0  0
   -7.0593   -1.2351    5.9994 H   0  0  0  0  0  0  0  0  0  0  0  0
   -5.4798   -2.0571    6.2479 H   0  0  0  0  0  0  0  0  0  0  0  0
   -5.3567    0.8698    6.2688 H   0  0  0  0  0  0  0  0  0  0  0  0
   -3.9483   -1.1200    1.0879 H   0  0  0  0  0  0  0  0  0  0  0  0
   -2.4824    1.4993    1.6007 H   0  0  0  0  0  0  0  0  0  0  0  0
   -0.2115    1.3533    1.1299 H   0  0  0  0  0  0  0  0  0  0  0  0
    2.1399    1.2127    1.3509 H   0  0  0  0  0  0  0  0  0  0  0  0
    4.2171    0.3098    0.6060 H   0  0  0  0  0  0  0  0  0  0  0  0
    2.1885   -2.7629   -1.5447 H   0  0  0  0  0  0  0  0  0  0  0  0
    0.0461   -1.8738   -0.8279 H   0  0  0  0  0  0  0  0  0  0  0  0
    4.0861   -3.8449   -1.0843 H   0  0  0  0  0  0  0  0  0  0  0  0
    6.3239   -4.6326   -1.8261 H   0  0  0  0  0  0  0  0  0  0  0  0
    5.5349    0.1066   -0.9508 H   0  0  0  0  0  0  0  0  0  0  0  0
    9.1912   -1.4984   -3.1050 H   0  0  0  0  0  0  0  0  0  0  0  0
    9.6570   -1.6284   -1.3677 H   0  0  0  0  0  0  0  0  0  0  0  0
   10.8624    0.3516   -1.4451 H   0  0  0  0  0  0  0  0  0  0  0  0
   11.0332   -0.2240   -3.1869 H   0  0  0  0  0  0  0  0  0  0  0  0
    9.3948    1.3353   -3.8170 H   0  0  0  0  0  0  0  0  0  0  0  0
    9.4592    2.1504   -0.9795 H   0  0  0  0  0  0  0  0  0  0  0  0
    8.4563    2.9008   -2.2385 H   0  0  0  0  0  0  0  0  0  0  0  0
    7.5124    1.1440   -0.3727 H   0  0  0  0  0  0  0  0  0  0  0  0
    6.8294    1.2980   -1.9883 H   0  0  0  0  0  0  0  0  0  0  0  0
   -6.6372   -0.2566    0.9277 H   0  0  0  0  0  0  0  0  0  0  0  0
   -6.3977    1.5734   -1.4894 H   0  0  0  0  0  0  0  0  0  0  0  0
   -6.8516    3.1075    0.2261 H   0  0  0  0  0  0  0  0  0  0  0  0
   -8.1681    2.0172    0.9569 H   0  0  0  0  0  0  0  0  0  0  0  0
   -9.3857    3.4524   -0.6540 H   0  0  0  0  0  0  0  0  0  0  0  0
   -7.9971    3.2074   -1.8689 H   0  0  0  0  0  0  0  0  0  0  0  0
  -10.1597    1.2903   -0.8999 H   0  0  0  0  0  0  0  0  0  0  0  0
   -9.4521    1.5313   -2.5621 H   0  0  0  0  0  0  0  0  0  0  0  0
   -8.5930   -0.3415   -0.4645 H   0  0  0  0  0  0  0  0  0  0  0  0
   -7.8846   -0.1590   -2.0992 H   0  0  0  0  0  0  0  0  0  0  0  0
  1  2  1  0
  2  3  2  0
  3  4  1  0
  4  5  1  0
  5  6  2  0
  5  7  1  0
  7  8  1  0
  8  9  1  0
  9 10  2  0
  9 11  1  0
 11 12  1  0
 12 13  2  0
 13 14  1  0
 14 15  2  0
 15 16  1  0
 16 17  2  0
 15 18  1  0
 18 19  2  0
 19 20  1  0
 20 21  2  0
 21 22  1  0
 22 23  2  0
 22 24  1  0
 24 25  1  0
 25 26  1  0
 26 27  1  0
 27 28  1  0
 28 29  1  0
  7 30  1  0
 30 31  2  0
 30 32  1  0
 32 33  1  0
 33 34  1  0
 34 35  1  0
 35 36  1  0
 36 37  1  0
  6  2  1  0
 17 12  1  0
 23 18  1  0
 29 24  1  0
 37 33  1  0
  1 38  1  0
  1 39  1  0
  1 40  1  0
  3 41  1  0
  7 42  1  6
  8 43  1  0
 11 44  1  0
 13 45  1  0
 14 46  1  0
 16 47  1  0
 17 48  1  0
 19 49  1  0
 20 50  1  0
 23 51  1  0
 25 52  1  0
 25 53  1  0
 26 54  1  0
 26 55  1  0
 27 56  1  0
 28 57  1  0
 28 58  1  0
 29 59  1  0
 29 60  1  0
 32 61  1  0
 33 62  1  0
 34 63  1  0
 34 64  1  0
 35 65  1  0
 35 66  1  0
 36 67  1  0
 36 68  1  0
 37 69  1  0
 37 70  1  0
M  END
$$$$
[H]OC1([H])C([H])([H])C([H])([H])N(C(=O)C([H])([H])N([H])C([H])([H])c2c([H])c([H])c([H])c(-c3c([H])c(C#N)n(-c4c([H])c([H])c(OC([H])([H])[H])c([H])c4[H])c3C(=O)N([H])[H])c2[H])C([H])([H])C1([H])[H]
     RDKit          3D

 65 68  0  0  0  0  0  0  0  0999 V2000
  -10.3734    2.0253   -0.4688 C   0  0  0  0  0  0  0  0  0  0  0  0
   -9.1949    2.3086   -1.1798 O   0  0  0  0  0  0  0  0  0  0  0  0
   -7.9349    1.9141   -0.7405 C   0  0  0  0  0  0  0  0  0  0  0  0
   -6.8044    2.2112   -1.4662 C   0  0  0  0  0  0  0  0  0  0  0  0
   -5.5506    1.8260   -1.0422 C   0  0  0  0  0  0  0  0  0  0  0  0
   -5.3619    1.1273    0.1236 C   0  0  0  0  0  0  0  0  0  0  0  0
   -6.5112    0.8252    0.8613 C   0  0  0  0  0  0  0  0  0  0  0  0
   -7.7671    1.2085    0.4404 C   0  0  0  0  0  0  0  0  0  0  0  0
   -4.0873    0.7192    0.5815 N   0  0  0  0  0  0  0  0  0  0  0  0
   -3.5140   -0.4749    0.2494 C   0  0  0  0  0  0  0  0  0  0  0  0
   -4.1304   -1.4431   -0.6170 C   0  0  0  0  0  0  0  0  0  0  0  0
   -3.4880   -2.6183   -1.0535 N   0  0  0  0  0  0  0  0  0  0  0  0
   -5.3226   -1.2901   -1.0542 O   0  0  0  0  0  0  0  0  0  0  0  0
   -2.2961   -0.5537    0.8563 C   0  0  0  0  0  0  0  0  0  0  0  0
   -2.1040    0.6308    1.5882 C   0  0  0  0  0  0  0  0  0  0  0  0
   -3.2254    1.3709    1.3863 C   0  0  0  0  0  0  0  0  0  0  0  0
   -3.5053    2.6788    1.9337 C   0  0  0  0  0  0  0  0  0  0  0  0
   -3.7302    3.7167    2.3829 N   0  0  0  0  0  0  0  0  0  0  0  0
   -1.2919   -1.6167    0.8828 C   0  0  0  0  0  0  0  0  0  0  0  0
   -1.5618   -2.8761    1.3634 C   0  0  0  0  0  0  0  0  0  0  0  0
   -0.5622   -3.8180    1.3419 C   0  0  0  0  0  0  0  0  0  0  0  0
    0.7086   -3.5398    0.8515 C   0  0  0  0  0  0  0  0  0  0  0  0
    0.9946   -2.2899    0.3691 C   0  0  0  0  0  0  0  0  0  0  0  0
    2.3631   -2.0025   -0.1573 C   0  0  0  0  0  0  0  0  0  0  0  0
    3.1631   -1.6264    0.9769 N   0  0  0  0  0  0  0  0  0  0  0  0
    4.5212   -1.3072    0.6927 C   0  0  0  0  0  0  0  0  0  0  0  0
    4.6898   -0.0447   -0.0413 C   0  0  0  0  0  0  0  0  0  0  0  0
    3.7007    0.6601   -0.3504 O   0  0  0  0  0  0  0  0  0  0  0  0
    5.9916    0.3890   -0.4092 N   0  0  0  0  0  0  0  0  0  0  0  0
    7.1176   -0.4302   -0.0507 C   0  0  0  0  0  0  0  0  0  0  0  0
    8.4275    0.2853   -0.0481 C   0  0  0  0  0  0  0  0  0  0  0  0
    8.5324    1.4001   -1.0402 C   0  0  0  0  0  0  0  0  0  0  0  0
    8.4876    0.9544   -2.3605 O   0  0  0  0  0  0  0  0  0  0  0  0
    7.3931    2.3631   -0.7804 C   0  0  0  0  0  0  0  0  0  0  0  0
    6.1160    1.6400   -1.1288 C   0  0  0  0  0  0  0  0  0  0  0  0
   -0.0030   -1.3546    0.3920 C   0  0  0  0  0  0  0  0  0  0  0  0
  -11.2170    2.0913   -1.1953 H   0  0  0  0  0  0  0  0  0  0  0  0
  -10.3815    0.9908   -0.0555 H   0  0  0  0  0  0  0  0  0  0  0  0
  -10.5464    2.7845    0.2975 H   0  0  0  0  0  0  0  0  0  0  0  0
   -6.9395    2.7705   -2.4018 H   0  0  0  0  0  0  0  0  0  0  0  0
   -4.6792    2.0831   -1.6480 H   0  0  0  0  0  0  0  0  0  0  0  0
   -6.3386    0.2743    1.7756 H   0  0  0  0  0  0  0  0  0  0  0  0
   -8.6274    0.9622    1.0267 H   0  0  0  0  0  0  0  0  0  0  0  0
   -3.7752   -3.5853   -0.7571 H   0  0  0  0  0  0  0  0  0  0  0  0
   -2.6608   -2.5924   -1.7202 H   0  0  0  0  0  0  0  0  0  0  0  0
   -1.2357    0.8761    2.1789 H   0  0  0  0  0  0  0  0  0  0  0  0
   -2.5221   -3.1355    1.7558 H   0  0  0  0  0  0  0  0  0  0  0  0
   -0.7445   -4.8349    1.7185 H   0  0  0  0  0  0  0  0  0  0  0  0
    1.4890   -4.3004    0.8422 H   0  0  0  0  0  0  0  0  0  0  0  0
    2.7637   -2.9329   -0.6260 H   0  0  0  0  0  0  0  0  0  0  0  0
    2.2920   -1.1829   -0.8645 H   0  0  0  0  0  0  0  0  0  0  0  0
    2.6714   -0.8938    1.5152 H   0  0  0  0  0  0  0  0  0  0  0  0
    5.0571   -1.2600    1.6704 H   0  0  0  0  0  0  0  0  0  0  0  0
    5.0248   -2.1204    0.0911 H   0  0  0  0  0  0  0  0  0  0  0  0
    6.9448   -0.8125    0.9939 H   0  0  0  0  0  0  0  0  0  0  0  0
    7.1561   -1.3651   -0.6824 H   0  0  0  0  0  0  0  0  0  0  0  0
    8.6152    0.7245    0.9610 H   0  0  0  0  0  0  0  0  0  0  0  0
    9.2172   -0.4783   -0.3100 H   0  0  0  0  0  0  0  0  0  0  0  0
    9.4759    1.9485   -0.8380 H   0  0  0  0  0  0  0  0  0  0  0  0
    8.5661    1.7609   -2.9280 H   0  0  0  0  0  0  0  0  0  0  0  0
    7.4691    3.2489   -1.4346 H   0  0  0  0  0  0  0  0  0  0  0  0
    7.4185    2.6849    0.2709 H   0  0  0  0  0  0  0  0  0  0  0  0
    6.1367    1.3973   -2.2103 H   0  0  0  0  0  0  0  0  0  0  0  0
    5.2540    2.2894   -0.8826 H   0  0  0  0  0  0  0  0  0  0  0  0
    0.2300   -0.3611    0.0063 H   0  0  0  0  0  0  0  0  0  0  0  0
  1  2  1  0
  2  3  1  0
  3  4  2  0
  4  5  1  0
  5  6  2  0
  6  7  1  0
  7  8  2  0
  6  9  1  0
  9 10  1  0
 10 11  1  0
 11 12  1  0
 11 13  2  0
 10 14  2  0
 14 15  1  0
 15 16  2  0
 16 17  1  0
 17 18  3  0
 14 19  1  0
 19 20  2  0
 20 21  1  0
 21 22  2  0
 22 23  1  0
 23 24  1  0
 24 25  1  0
 25 26  1  0
 26 27  1  0
 27 28  2  0
 27 29  1  0
 29 30  1  0
 30 31  1  0
 31 32  1  0
 32 33  1  0
 32 34  1  0
 34 35  1  0
 23 36  2  0
  8  3  1  0
 16  9  1  0
 36 19  1  0
 35 29  1  0
  1 37  1  0
  1 38  1  0
  1 39  1  0
  4 40  1  0
  5 41  1  0
  7 42  1  0
  8 43  1  0
 12 44  1  0
 12 45  1  0
 15 46  1  0
 20 47  1  0
 21 48  1  0
 22 49  1  0
 24 50  1  0
 24 51  1  0
 25 52  1  0
 26 53  1  0
 26 54  1  0
 30 55  1  0
 30 56  1  0
 31 57  1  0
 31 58  1  0
 32 59  1  0
 33 60  1  0
 34 61  1  0
 34 62  1  0
 35 63  1  0
 35 64  1  0
 36 65  1  0
M  END
$$$$
[H]c1c([H])c(C([H])([H])C([H])([H])N(C([H])([H])[H])C([H])([H])C([H])([H])C(=O)N([H])[H])c([H])c([H])c1OC([H])([H])[H]
     RDKit          3D

 37 37  0  0  0  0  0  0  0  0999 V2000
    6.5823    0.8573   -0.3164 C   0  0  0  0  0  0  0  0  0  0  0  0
    5.5395    0.7111   -1.2114 O   0  0  0  0  0  0  0  0  0  0  0  0
    4.2767    0.2872   -1.0083 C   0  0  0  0  0  0  0  0  0  0  0  0
    3.3748    0.2120   -2.0699 C   0  0  0  0  0  0  0  0  0  0  0  0
    2.0916   -0.2160   -1.8851 C   0  0  0  0  0  0  0  0  0  0  0  0
    1.6275   -0.5898   -0.6559 C   0  0  0  0  0  0  0  0  0  0  0  0
    0.2166   -1.0530   -0.4283 C   0  0  0  0  0  0  0  0  0  0  0  0
   -0.6068    0.1796   -0.1296 C   0  0  0  0  0  0  0  0  0  0  0  0
   -1.9744   -0.0885    0.1344 N   0  0  0  0  0  0  0  0  0  0  0  0
   -2.2309   -0.7814    1.3524 C   0  0  0  0  0  0  0  0  0  0  0  0
   -2.8314    0.9929   -0.1781 C   0  0  0  0  0  0  0  0  0  0  0  0
   -4.2762    0.7851    0.1079 C   0  0  0  0  0  0  0  0  0  0  0  0
   -4.8471   -0.3624   -0.6357 C   0  0  0  0  0  0  0  0  0  0  0  0
   -6.2376   -0.6391   -0.4142 N   0  0  0  0  0  0  0  0  0  0  0  0
   -4.1713   -1.0793   -1.4283 O   0  0  0  0  0  0  0  0  0  0  0  0
    2.5191   -0.5201    0.4124 C   0  0  0  0  0  0  0  0  0  0  0  0
    3.8193   -0.0854    0.2172 C   0  0  0  0  0  0  0  0  0  0  0  0
    6.5542    1.8690    0.1613 H   0  0  0  0  0  0  0  0  0  0  0  0
    7.5785    0.7099   -0.8118 H   0  0  0  0  0  0  0  0  0  0  0  0
    6.5785    0.0893    0.5104 H   0  0  0  0  0  0  0  0  0  0  0  0
    3.7210    0.5000   -3.0459 H   0  0  0  0  0  0  0  0  0  0  0  0
    1.4481   -0.2515   -2.7491 H   0  0  0  0  0  0  0  0  0  0  0  0
   -0.1199   -1.5649   -1.3355 H   0  0  0  0  0  0  0  0  0  0  0  0
    0.2707   -1.7560    0.4331 H   0  0  0  0  0  0  0  0  0  0  0  0
   -0.0751    0.7787    0.6311 H   0  0  0  0  0  0  0  0  0  0  0  0
   -0.5663    0.7895   -1.0796 H   0  0  0  0  0  0  0  0  0  0  0  0
   -1.5149   -1.6438    1.4133 H   0  0  0  0  0  0  0  0  0  0  0  0
   -2.1475   -0.1489    2.2582 H   0  0  0  0  0  0  0  0  0  0  0  0
   -3.2357   -1.2374    1.3082 H   0  0  0  0  0  0  0  0  0  0  0  0
   -2.4524    1.9198    0.3157 H   0  0  0  0  0  0  0  0  0  0  0  0
   -2.7335    1.2176   -1.2787 H   0  0  0  0  0  0  0  0  0  0  0  0
   -4.8136    1.6921   -0.3018 H   0  0  0  0  0  0  0  0  0  0  0  0
   -4.5297    0.7770    1.1845 H   0  0  0  0  0  0  0  0  0  0  0  0
   -6.9483   -0.0419   -0.8840 H   0  0  0  0  0  0  0  0  0  0  0  0
   -6.4765   -1.4318    0.2125 H   0  0  0  0  0  0  0  0  0  0  0  0
    2.1503   -0.8153    1.3865 H   0  0  0  0  0  0  0  0  0  0  0  0
    4.4401   -0.0618    1.0975 H   0  0  0  0  0  0  0  0  0  0  0  0
  1  2  1  0
  2  3  1  0
  3  4  2  0
  4  5  1  0
  5  6  2  0
  6  7  1  0
  7  8  1  0
  8  9  1  0
  9 10  1  0
  9 11  1  0
 11 12  1  0
 12 13  1  0
 13 14  1  0
 13 15  2  0
  6 16  1  0
 16 17  2  0
 17  3  1  0
  1 18  1  0
  1 19  1  0
  1 20  1  0
  4 21  1  0
  5 22  1  0
  7 23  1  0
  7 24  1  0
  8 25  1  0
  8 26  1  0
 10 27  1  0
 10 28  1  0
 10 29  1  0
 11 30  1  0
 11 31  1  0
 12 32  1  0
 12 33  1  0
 14 34  1  0
 14 35  1  0
 16 36  1  0
 17 37  1  0
M  END
$$$$
[H]c1c([H])c(S(=O)(=O)N2C([H])([H])C([H])([H])C([H])([H])C2([H])c2c([H])c([H])c(N([H])S(=O)(=O)c3c([H])c([H])c(C(F)(F)F)c([H])c3[H])c([H])c2[H])c([H])c(OC([H])([H])C([H])([H])[H])c1OC([H])([H])[H]
     RDKit          3D

 66 69  0  0  0  0  0  0  0  0999 V2000
   -8.9781   -0.7839    0.7786 C   0  0  0  0  0  0  0  0  0  0  0  0
   -8.0432    0.2628    0.4578 O   0  0  0  0  0  0  0  0  0  0  0  0
   -6.6824   -0.0497    0.5519 C   0  0  0  0  0  0  0  0  0  0  0  0
   -6.2465   -1.2969    0.9414 C   0  0  0  0  0  0  0  0  0  0  0  0
   -4.8977   -1.5836    1.0253 C   0  0  0  0  0  0  0  0  0  0  0  0
   -3.9191   -0.6559    0.7297 C   0  0  0  0  0  0  0  0  0  0  0  0
   -4.3581    0.5945    0.3407 C   0  0  0  0  0  0  0  0  0  0  0  0
   -5.7139    0.9003    0.2516 C   0  0  0  0  0  0  0  0  0  0  0  0
   -6.2000    2.1344   -0.1272 O   0  0  0  0  0  0  0  0  0  0  0  0
   -5.4905    3.2682   -0.4739 C   0  0  0  0  0  0  0  0  0  0  0  0
   -6.5461    4.3434   -0.7950 C   0  0  0  0  0  0  0  0  0  0  0  0
   -2.2346   -1.1083    0.8707 S   0  0  0  0  0  0  0  0  0  0  0  0
   -1.4613    0.1724    1.1830 O   0  0  0  0  0  0  0  0  0  0  0  0
   -2.0276   -1.9762    2.1095 O   0  0  0  0  0  0  0  0  0  0  0  0
   -1.5609   -1.8426   -0.4420 N   0  0  0  0  0  0  0  0  0  0  0  0
   -2.0379   -3.0503   -0.9321 C   0  0  0  0  0  0  0  0  0  0  0  0
   -0.9174   -3.6098   -1.7777 C   0  0  0  0  0  0  0  0  0  0  0  0
   -0.2165   -2.3517   -2.2436 C   0  0  0  0  0  0  0  0  0  0  0  0
   -0.6776   -1.2287   -1.3027 C   0  0  0  0  0  0  0  0  0  0  0  0
    0.5357   -0.7626   -0.5387 C   0  0  0  0  0  0  0  0  0  0  0  0
    1.0228    0.4997   -0.5891 C   0  0  0  0  0  0  0  0  0  0  0  0
    2.1694    0.8580    0.1358 C   0  0  0  0  0  0  0  0  0  0  0  0
    2.8361   -0.0560    0.9202 C   0  0  0  0  0  0  0  0  0  0  0  0
    4.0069    0.2277    1.6755 N   0  0  0  0  0  0  0  0  0  0  0  0
    5.4276   -0.7778    1.6010 S   0  0  0  0  0  0  0  0  0  0  0  0
    5.7386   -1.1203    3.0570 O   0  0  0  0  0  0  0  0  0  0  0  0
    5.1749   -2.0429    0.8478 O   0  0  0  0  0  0  0  0  0  0  0  0
    6.7420    0.1595    0.9420 C   0  0  0  0  0  0  0  0  0  0  0  0
    6.4328    1.2153    0.0810 C   0  0  0  0  0  0  0  0  0  0  0  0
    7.4205    2.0005   -0.4853 C   0  0  0  0  0  0  0  0  0  0  0  0
    8.7487    1.7318   -0.1901 C   0  0  0  0  0  0  0  0  0  0  0  0
    9.0573    0.6965    0.6551 C   0  0  0  0  0  0  0  0  0  0  0  0
    8.0607   -0.0940    1.2238 C   0  0  0  0  0  0  0  0  0  0  0  0
    9.7904    2.5799   -0.7871 C   0  0  0  0  0  0  0  0  0  0  0  0
    9.6541    2.4953   -2.1690 F   0  0  0  0  0  0  0  0  0  0  0  0
   11.0531    2.2611   -0.3758 F   0  0  0  0  0  0  0  0  0  0  0  0
    9.4643    3.8924   -0.4158 F   0  0  0  0  0  0  0  0  0  0  0  0
    2.3071   -1.3350    0.9447 C   0  0  0  0  0  0  0  0  0  0  0  0
    1.1813   -1.7025    0.2384 C   0  0  0  0  0  0  0  0  0  0  0  0
   -8.8287   -0.9852    1.8627 H   0  0  0  0  0  0  0  0  0  0  0  0
  -10.0094   -0.4752    0.6258 H   0  0  0  0  0  0  0  0  0  0  0  0
   -8.7033   -1.7139    0.2399 H   0  0  0  0  0  0  0  0  0  0  0  0
   -6.9981   -2.0534    1.1769 H   0  0  0  0  0  0  0  0  0  0  0  0
   -4.5662   -2.5743    1.3349 H   0  0  0  0  0  0  0  0  0  0  0  0
   -3.6310    1.3459    0.0963 H   0  0  0  0  0  0  0  0  0  0  0  0
   -4.7956    3.1955   -1.3119 H   0  0  0  0  0  0  0  0  0  0  0  0
   -4.9978    3.6651    0.4598 H   0  0  0  0  0  0  0  0  0  0  0  0
   -7.1194    4.0242   -1.6795 H   0  0  0  0  0  0  0  0  0  0  0  0
   -7.2719    4.3449    0.0589 H   0  0  0  0  0  0  0  0  0  0  0  0
   -6.0804    5.3453   -0.8956 H   0  0  0  0  0  0  0  0  0  0  0  0
   -2.2231   -3.8031   -0.1274 H   0  0  0  0  0  0  0  0  0  0  0  0
   -2.9144   -2.9828   -1.6233 H   0  0  0  0  0  0  0  0  0  0  0  0
   -1.2935   -4.1518   -2.6778 H   0  0  0  0  0  0  0  0  0  0  0  0
   -0.2505   -4.2620   -1.1657 H   0  0  0  0  0  0  0  0  0  0  0  0
    0.8974   -2.4788   -2.1317 H   0  0  0  0  0  0  0  0  0  0  0  0
   -0.3987   -2.1312   -3.3011 H   0  0  0  0  0  0  0  0  0  0  0  0
   -1.0702   -0.3777   -1.9059 H   0  0  0  0  0  0  0  0  0  0  0  0
    0.5230    1.2477   -1.1990 H   0  0  0  0  0  0  0  0  0  0  0  0
    2.5364    1.8632    0.0831 H   0  0  0  0  0  0  0  0  0  0  0  0
    4.0133    1.0611    2.2866 H   0  0  0  0  0  0  0  0  0  0  0  0
    5.4007    1.4224   -0.1423 H   0  0  0  0  0  0  0  0  0  0  0  0
    7.1591    2.8097   -1.1439 H   0  0  0  0  0  0  0  0  0  0  0  0
   10.0985    0.4824    0.8835 H   0  0  0  0  0  0  0  0  0  0  0  0
    8.2945   -0.9126    1.8923 H   0  0  0  0  0  0  0  0  0  0  0  0
    2.8135   -2.0606    1.5526 H   0  0  0  0  0  0  0  0  0  0  0  0
    0.8012   -2.7099    0.2814 H   0  0  0  0  0  0  0  0  0  0  0  0
  1  2  1  0
  2  3  1  0
  3  4  2  0
  4  5  1  0
  5  6  2  0
  6  7  1  0
  7  8  2  0
  8  9  1  0
  9 10  1  0
 10 11  1  0
  6 12  1  0
 12 13  2  0
 12 14  2  0
 12 15  1  0
 15 16  1  0
 16 17  1  0
 17 18  1  0
 18 19  1  0
 19 20  1  0
 20 21  2  0
 21 22  1  0
 22 23  2  0
 23 24  1  0
 24 25  1  0
 25 26  2  0
 25 27  2  0
 25 28  1  0
 28 29  2  0
 29 30  1  0
 30 31  2  0
 31 32  1  0
 32 33  2  0
 31 34  1  0
 34 35  1  0
 34 36  1  0
 34 37  1  0
 23 38  1  0
 38 39  2  0
  8  3  1  0
 19 15  1  0
 39 20  1  0
 33 28  1  0
  1 40  1  0
  1 41  1  0
  1 42  1  0
  4 43  1  0
  5 44  1  0
  7 45  1  0
 10 46  1  0
 10 47  1  0
 11 48  1  0
 11 49  1  0
 11 50  1  0
 16 51  1  0
 16 52  1  0
 17 53  1  0
 17 54  1  0
 18 55  1  0
 18 56  1  0
 19 57  1  0
 21 58  1  0
 22 59  1  0
 24 60  1  0
 29 61  1  0
 30 62  1  0
 32 63  1  0
 33 64  1  0
 38 65  1  0
 39 66  1  0
M  END
$$$$
[H]c1nc([H])n(C([H])([H])C(=O)N([H])C2([H])C([H])([H])C([H])([H])C2([H])[H])c1[H]
     RDKit          3D

 26 27  0  0  0  0  0  0  0  0999 V2000
   -0.1141   -1.4503   -1.0924 O   0  0  0  0  0  0  0  0  0  0  0  0
   -0.2981   -0.9445    0.0571 C   0  0  0  0  0  0  0  0  0  0  0  0
   -1.5823   -1.2244    0.7267 C   0  0  0  0  0  0  0  0  0  0  0  0
   -2.6962   -0.4622    0.2035 N   0  0  0  0  0  0  0  0  0  0  0  0
   -3.4965   -0.8728   -0.8156 C   0  0  0  0  0  0  0  0  0  0  0  0
   -4.4598    0.0783   -1.0691 C   0  0  0  0  0  0  0  0  0  0  0  0
   -4.2262    1.0687   -0.1853 N   0  0  0  0  0  0  0  0  0  0  0  0
   -3.1635    0.7327    0.5738 C   0  0  0  0  0  0  0  0  0  0  0  0
    0.6752   -0.1580    0.6550 N   0  0  0  0  0  0  0  0  0  0  0  0
    1.9599    0.1730    0.0759 C   0  0  0  0  0  0  0  0  0  0  0  0
    3.1498   -0.3750    0.8528 C   0  0  0  0  0  0  0  0  0  0  0  0
    3.8724    0.9120    0.5220 C   0  0  0  0  0  0  0  0  0  0  0  0
    2.4955    1.5514    0.3686 C   0  0  0  0  0  0  0  0  0  0  0  0
   -1.4455   -1.0127    1.8291 H   0  0  0  0  0  0  0  0  0  0  0  0
   -1.7895   -2.3371    0.7118 H   0  0  0  0  0  0  0  0  0  0  0  0
   -3.4093   -1.7975   -1.3629 H   0  0  0  0  0  0  0  0  0  0  0  0
   -5.2549    0.0863   -1.7979 H   0  0  0  0  0  0  0  0  0  0  0  0
   -2.7738    1.3629    1.3531 H   0  0  0  0  0  0  0  0  0  0  0  0
    0.4706    0.2391    1.6224 H   0  0  0  0  0  0  0  0  0  0  0  0
    2.0428   -0.1792   -0.9533 H   0  0  0  0  0  0  0  0  0  0  0  0
    3.5988   -1.2852    0.4020 H   0  0  0  0  0  0  0  0  0  0  0  0
    2.9998   -0.5101    1.9279 H   0  0  0  0  0  0  0  0  0  0  0  0
    4.3530    0.8941   -0.4776 H   0  0  0  0  0  0  0  0  0  0  0  0
    4.4835    1.3158    1.3490 H   0  0  0  0  0  0  0  0  0  0  0  0
    2.4521    2.2731   -0.4555 H   0  0  0  0  0  0  0  0  0  0  0  0
    2.1564    1.9216    1.3544 H   0  0  0  0  0  0  0  0  0  0  0  0
  1  2  2  0
  2  3  1  0
  3  4  1  0
  4  5  1  0
  5  6  2  0
  6  7  1  0
  7  8  2  0
  2  9  1  0
  9 10  1  0
 10 11  1  0
 11 12  1  0
 12 13  1  0
  8  4  1  0
 13 10  1  0
  3 14  1  0
  3 15  1  0
  5 16  1  0
  6 17  1  0
  8 18  1  0
  9 19  1  0
 10 20  1  0
 11 21  1  0
 11 22  1  0
 12 23  1  0
 12 24  1  0
 13 25  1  0
 13 26  1  0
M  END
$$$$
[H]c1nc([H])n(C([H])([H])c2c([H])c(OC([H])([H])[H])c([H])c(-c3nc4c([H])c(OC([H])([H])[H])c([H])c([H])c4n3[H])c2[H])c1[H]
     RDKit          3D

 43 46  0  0  0  0  0  0  0  0999 V2000
    6.4069   -1.9500    1.6753 C   0  0  0  0  0  0  0  0  0  0  0  0
    6.4260   -0.6658    1.0901 O   0  0  0  0  0  0  0  0  0  0  0  0
    5.2650   -0.0713    0.5895 C   0  0  0  0  0  0  0  0  0  0  0  0
    5.2959    1.1821    0.0210 C   0  0  0  0  0  0  0  0  0  0  0  0
    4.1605    1.7897   -0.4805 C   0  0  0  0  0  0  0  0  0  0  0  0
    2.9469    1.1461   -0.4239 C   0  0  0  0  0  0  0  0  0  0  0  0
    1.6755    1.4549   -0.8153 N   0  0  0  0  0  0  0  0  0  0  0  0
    0.8691    0.4341   -0.5058 C   0  0  0  0  0  0  0  0  0  0  0  0
    1.6140   -0.5071    0.0720 N   0  0  0  0  0  0  0  0  0  0  0  0
    2.9090   -0.1001    0.1398 C   0  0  0  0  0  0  0  0  0  0  0  0
    4.0405   -0.7042    0.6390 C   0  0  0  0  0  0  0  0  0  0  0  0
   -0.5526    0.3731   -0.7572 C   0  0  0  0  0  0  0  0  0  0  0  0
   -1.3171   -0.7447   -0.3950 C   0  0  0  0  0  0  0  0  0  0  0  0
   -2.6748   -0.8084   -0.6326 C   0  0  0  0  0  0  0  0  0  0  0  0
   -3.4442   -2.0105   -0.2327 C   0  0  0  0  0  0  0  0  0  0  0  0
   -3.9679   -1.9287    1.0955 N   0  0  0  0  0  0  0  0  0  0  0  0
   -5.1715   -1.4246    1.4149 C   0  0  0  0  0  0  0  0  0  0  0  0
   -5.3064   -1.5218    2.7808 C   0  0  0  0  0  0  0  0  0  0  0  0
   -4.1721   -2.0837    3.2309 N   0  0  0  0  0  0  0  0  0  0  0  0
   -3.3377   -2.3406    2.2090 C   0  0  0  0  0  0  0  0  0  0  0  0
   -3.2553    0.2883   -1.2493 C   0  0  0  0  0  0  0  0  0  0  0  0
   -2.5371    1.3973   -1.6165 C   0  0  0  0  0  0  0  0  0  0  0  0
   -3.1593    2.4931   -2.2410 O   0  0  0  0  0  0  0  0  0  0  0  0
   -2.4138    3.6165   -2.6095 C   0  0  0  0  0  0  0  0  0  0  0  0
   -1.1791    1.4391   -1.3689 C   0  0  0  0  0  0  0  0  0  0  0  0
    7.3172   -2.1879    2.2240 H   0  0  0  0  0  0  0  0  0  0  0  0
    6.1594   -2.7281    0.9160 H   0  0  0  0  0  0  0  0  0  0  0  0
    5.5405   -1.9401    2.3977 H   0  0  0  0  0  0  0  0  0  0  0  0
    6.2363    1.7356   -0.0479 H   0  0  0  0  0  0  0  0  0  0  0  0
    4.1735    2.7826   -0.9331 H   0  0  0  0  0  0  0  0  0  0  0  0
    1.4694    2.3707   -1.2756 H   0  0  0  0  0  0  0  0  0  0  0  0
    3.9984   -1.7004    1.0872 H   0  0  0  0  0  0  0  0  0  0  0  0
   -0.7751   -1.5388    0.0754 H   0  0  0  0  0  0  0  0  0  0  0  0
   -4.2750   -2.1077   -0.9914 H   0  0  0  0  0  0  0  0  0  0  0  0
   -2.7918   -2.8845   -0.4116 H   0  0  0  0  0  0  0  0  0  0  0  0
   -5.9168   -1.0128    0.7508 H   0  0  0  0  0  0  0  0  0  0  0  0
   -6.1716   -1.2025    3.3838 H   0  0  0  0  0  0  0  0  0  0  0  0
   -2.3652   -2.7934    2.3444 H   0  0  0  0  0  0  0  0  0  0  0  0
   -4.3143    0.2488   -1.4392 H   0  0  0  0  0  0  0  0  0  0  0  0
   -1.8477    3.9686   -1.7118 H   0  0  0  0  0  0  0  0  0  0  0  0
   -1.7745    3.4744   -3.4938 H   0  0  0  0  0  0  0  0  0  0  0  0
   -3.1481    4.4342   -2.8350 H   0  0  0  0  0  0  0  0  0  0  0  0
   -0.6349    2.3288   -1.6697 H   0  0  0  0  0  0  0  0  0  0  0  0
  1  2  1  0
  2  3  1  0
  3  4  2  0
  4  5  1  0
  5  6  2  0
  6  7  1  0
  7  8  1  0
  8  9  2  0
  9 10  1  0
 10 11  2  0
  8 12  1  0
 12 13  2  0
 13 14  1  0
 14 15  1  0
 15 16  1  0
 16 17  1  0
 17 18  2  0
 18 19  1  0
 19 20  2  0
 14 21  2  0
 21 22  1  0
 22 23  1  0
 23 24  1  0
 22 25  2  0
 11  3  1  0
 25 12  1  0
 10  6  1  0
 20 16  1  0
  1 26  1  0
  1 27  1  0
  1 28  1  0
  4 29  1  0
  5 30  1  0
  7 31  1  0
 11 32  1  0
 13 33  1  0
 15 34  1  0
 15 35  1  0
 17 36  1  0
 18 37  1  0
 20 38  1  0
 21 39  1  0
 24 40  1  0
 24 41  1  0
 24 42  1  0
 25 43  1  0
M  END
$$$$
[H]c1c([H])c(Oc2c([H])c(C(F)(F)F)c([H])c(C3([H])C([H])([H])C([H])([H])N(S(=O)(=O)C([H])(C([H])([H])[H])C([H])([H])[H])C([H])([H])C3([H])[H])c2[H])c([H])c([N+](=O)[O-])c1[H]
     RDKit          3D

 55 57  0  0  0  0  0  0  0  0999 V2000
    7.1433    1.3796   -0.7804 C   0  0  0  0  0  0  0  0  0  0  0  0
    5.6761    1.5962   -0.5988 C   0  0  0  0  0  0  0  0  0  0  0  0
    5.3439    2.7209    0.3619 C   0  0  0  0  0  0  0  0  0  0  0  0
    5.0203    0.0980    0.1518 S   0  0  0  0  0  0  0  0  0  0  0  0
    5.3374   -1.1010   -0.6824 O   0  0  0  0  0  0  0  0  0  0  0  0
    5.6909   -0.0154    1.5146 O   0  0  0  0  0  0  0  0  0  0  0  0
    3.3563    0.3582    0.3984 N   0  0  0  0  0  0  0  0  0  0  0  0
    2.7057    0.5829   -0.8470 C   0  0  0  0  0  0  0  0  0  0  0  0
    1.3522   -0.1005   -0.9053 C   0  0  0  0  0  0  0  0  0  0  0  0
    0.5437    0.1152    0.3185 C   0  0  0  0  0  0  0  0  0  0  0  0
    1.3459   -0.0179    1.5993 C   0  0  0  0  0  0  0  0  0  0  0  0
    2.7289   -0.5857    1.2666 C   0  0  0  0  0  0  0  0  0  0  0  0
   -0.5697   -0.8407    0.4102 C   0  0  0  0  0  0  0  0  0  0  0  0
   -1.8079   -0.3666    0.8454 C   0  0  0  0  0  0  0  0  0  0  0  0
   -2.9244   -1.1621    0.9671 C   0  0  0  0  0  0  0  0  0  0  0  0
   -4.1346   -0.6693    1.4039 O   0  0  0  0  0  0  0  0  0  0  0  0
   -5.0959   -0.0719    0.6359 C   0  0  0  0  0  0  0  0  0  0  0  0
   -6.0758   -0.8390    0.0141 C   0  0  0  0  0  0  0  0  0  0  0  0
   -7.0694   -0.2799   -0.7697 C   0  0  0  0  0  0  0  0  0  0  0  0
   -7.1034    1.0740   -0.9503 C   0  0  0  0  0  0  0  0  0  0  0  0
   -6.1362    1.8647   -0.3410 C   0  0  0  0  0  0  0  0  0  0  0  0
   -5.1512    1.3044    0.4369 C   0  0  0  0  0  0  0  0  0  0  0  0
   -6.1764    3.2725   -0.5272 N   0  0  0  0  0  0  0  0  0  0  0  0
   -5.2351    4.0749    0.0642 O   0  0  0  0  0  0  0  0  0  0  0  0
   -7.0509    3.8102   -1.2203 O   0  0  0  0  0  0  0  0  0  0  0  0
   -2.7604   -2.5022    0.6257 C   0  0  0  0  0  0  0  0  0  0  0  0
   -1.5356   -2.9825    0.1924 C   0  0  0  0  0  0  0  0  0  0  0  0
   -0.4314   -2.1687    0.0788 C   0  0  0  0  0  0  0  0  0  0  0  0
   -1.4039   -4.4099   -0.1601 C   0  0  0  0  0  0  0  0  0  0  0  0
   -0.1349   -4.7039   -0.6036 F   0  0  0  0  0  0  0  0  0  0  0  0
   -1.7874   -5.2298    0.8961 F   0  0  0  0  0  0  0  0  0  0  0  0
   -2.2737   -4.6720   -1.2049 F   0  0  0  0  0  0  0  0  0  0  0  0
    7.6108    1.5232    0.2346 H   0  0  0  0  0  0  0  0  0  0  0  0
    7.2795    0.3020   -1.0939 H   0  0  0  0  0  0  0  0  0  0  0  0
    7.5779    2.0767   -1.5281 H   0  0  0  0  0  0  0  0  0  0  0  0
    5.1075    1.7019   -1.5584 H   0  0  0  0  0  0  0  0  0  0  0  0
    5.8960    3.6426    0.1802 H   0  0  0  0  0  0  0  0  0  0  0  0
    4.2362    2.8845    0.2573 H   0  0  0  0  0  0  0  0  0  0  0  0
    5.4594    2.3055    1.3942 H   0  0  0  0  0  0  0  0  0  0  0  0
    2.5575    1.6916   -1.0125 H   0  0  0  0  0  0  0  0  0  0  0  0
    3.3064    0.2498   -1.7173 H   0  0  0  0  0  0  0  0  0  0  0  0
    1.5215   -1.1393   -1.1977 H   0  0  0  0  0  0  0  0  0  0  0  0
    0.8102    0.3965   -1.7653 H   0  0  0  0  0  0  0  0  0  0  0  0
    0.1340    1.1618    0.3302 H   0  0  0  0  0  0  0  0  0  0  0  0
    1.4955    0.9687    2.1040 H   0  0  0  0  0  0  0  0  0  0  0  0
    0.8906   -0.7116    2.3282 H   0  0  0  0  0  0  0  0  0  0  0  0
    2.6152   -1.5917    0.8404 H   0  0  0  0  0  0  0  0  0  0  0  0
    3.2700   -0.6213    2.2265 H   0  0  0  0  0  0  0  0  0  0  0  0
   -1.8875    0.6857    1.1005 H   0  0  0  0  0  0  0  0  0  0  0  0
   -6.0374   -1.9029    0.1646 H   0  0  0  0  0  0  0  0  0  0  0  0
   -7.8323   -0.8907   -1.2521 H   0  0  0  0  0  0  0  0  0  0  0  0
   -7.8653    1.5489   -1.5531 H   0  0  0  0  0  0  0  0  0  0  0  0
   -4.3807    1.8968    0.9253 H   0  0  0  0  0  0  0  0  0  0  0  0
   -3.6442   -3.1183    0.7236 H   0  0  0  0  0  0  0  0  0  0  0  0
    0.4928   -2.5929   -0.2586 H   0  0  0  0  0  0  0  0  0  0  0  0
  1  2  1  0
  2  3  1  0
  2  4  1  0
  4  5  2  0
  4  6  2  0
  4  7  1  0
  7  8  1  0
  8  9  1  0
  9 10  1  0
 10 11  1  0
 11 12  1  0
 10 13  1  0
 13 14  2  0
 14 15  1  0
 15 16  1  0
 16 17  1  0
 17 18  2  0
 18 19  1  0
 19 20  2  0
 20 21  1  0
 21 22  2  0
 21 23  1  0
 23 24  1  0
 23 25  2  0
 15 26  2  0
 26 27  1  0
 27 28  2  0
 27 29  1  0
 29 30  1  0
 29 31  1  0
 29 32  1  0
 12  7  1  0
 28 13  1  0
 22 17  1  0
  1 33  1  0
  1 34  1  0
  1 35  1  0
  2 36  1  0
  3 37  1  0
  3 38  1  0
  3 39  1  0
  8 40  1  0
  8 41  1  0
  9 42  1  0
  9 43  1  0
 10 44  1  0
 11 45  1  0
 11 46  1  0
 12 47  1  0
 12 48  1  0
 14 49  1  0
 18 50  1  0
 19 51  1  0
 20 52  1  0
 22 53  1  0
 26 54  1  0
 28 55  1  0
M  CHG  2  23   1  24  -1
M  END
$$$$
[H]OC(C([H])([H])[H])(C([H])([H])[H])C([H])([H])C(=O)N(C(=O)c1c([H])c([H])c2c(c1[H])OC([H])([H])O2)C([H])([H])[H]
     RDKit          3D

 37 38  0  0  0  0  0  0  0  0999 V2000
   -4.3931   -0.2499   -1.3833 C   0  0  0  0  0  0  0  0  0  0  0  0
   -4.1889   -0.1586    0.0913 C   0  0  0  0  0  0  0  0  0  0  0  0
   -4.3618   -1.5164    0.7335 C   0  0  0  0  0  0  0  0  0  0  0  0
   -5.2000    0.6601    0.6145 O   0  0  0  0  0  0  0  0  0  0  0  0
   -2.8697    0.4874    0.4649 C   0  0  0  0  0  0  0  0  0  0  0  0
   -1.7228   -0.2676   -0.0712 C   0  0  0  0  0  0  0  0  0  0  0  0
   -1.9019   -1.3033   -0.7297 O   0  0  0  0  0  0  0  0  0  0  0  0
   -0.3632    0.1847    0.1601 N   0  0  0  0  0  0  0  0  0  0  0  0
   -0.1827    1.3817    0.9193 C   0  0  0  0  0  0  0  0  0  0  0  0
    0.6800   -0.5805   -0.3741 C   0  0  0  0  0  0  0  0  0  0  0  0
    0.3129   -1.6577   -1.0523 O   0  0  0  0  0  0  0  0  0  0  0  0
    2.1155   -0.4275   -0.3336 C   0  0  0  0  0  0  0  0  0  0  0  0
    2.8828   -1.4062   -1.0062 C   0  0  0  0  0  0  0  0  0  0  0  0
    4.2474   -1.3171   -1.0025 C   0  0  0  0  0  0  0  0  0  0  0  0
    4.8975   -0.3055   -0.3651 C   0  0  0  0  0  0  0  0  0  0  0  0
    6.2414   -0.0125   -0.2268 O   0  0  0  0  0  0  0  0  0  0  0  0
    6.3832    1.1555    0.5438 C   0  0  0  0  0  0  0  0  0  0  0  0
    5.0630    1.5642    0.8546 O   0  0  0  0  0  0  0  0  0  0  0  0
    4.1814    0.6650    0.3002 C   0  0  0  0  0  0  0  0  0  0  0  0
    2.7943    0.5806    0.3004 C   0  0  0  0  0  0  0  0  0  0  0  0
   -3.8344    0.5596   -1.8945 H   0  0  0  0  0  0  0  0  0  0  0  0
   -4.1066   -1.2224   -1.8272 H   0  0  0  0  0  0  0  0  0  0  0  0
   -5.4734   -0.1184   -1.5981 H   0  0  0  0  0  0  0  0  0  0  0  0
   -5.4559   -1.7140    0.9215 H   0  0  0  0  0  0  0  0  0  0  0  0
   -3.8860   -1.5604    1.7413 H   0  0  0  0  0  0  0  0  0  0  0  0
   -4.0132   -2.3035    0.0559 H   0  0  0  0  0  0  0  0  0  0  0  0
   -4.8783    1.6022    0.5478 H   0  0  0  0  0  0  0  0  0  0  0  0
   -2.8550    0.5796    1.5797 H   0  0  0  0  0  0  0  0  0  0  0  0
   -2.8767    1.5051    0.0377 H   0  0  0  0  0  0  0  0  0  0  0  0
    0.2690    2.2334    0.3285 H   0  0  0  0  0  0  0  0  0  0  0  0
   -1.2335    1.7400    1.2165 H   0  0  0  0  0  0  0  0  0  0  0  0
    0.3048    1.2557    1.8999 H   0  0  0  0  0  0  0  0  0  0  0  0
    2.4503   -2.2345   -1.5323 H   0  0  0  0  0  0  0  0  0  0  0  0
    4.8403   -2.0621   -1.5149 H   0  0  0  0  0  0  0  0  0  0  0  0
    6.9177    1.9702    0.0108 H   0  0  0  0  0  0  0  0  0  0  0  0
    6.9089    0.9380    1.4901 H   0  0  0  0  0  0  0  0  0  0  0  0
    2.3068    1.3548    0.8293 H   0  0  0  0  0  0  0  0  0  0  0  0
  1  2  1  0
  2  3  1  0
  2  4  1  0
  2  5  1  0
  5  6  1  0
  6  7  2  0
  6  8  1  0
  8  9  1  0
  8 10  1  0
 10 11  2  0
 10 12  1  0
 12 13  2  0
 13 14  1  0
 14 15  2  0
 15 16  1  0
 16 17  1  0
 17 18  1  0
 18 19  1  0
 19 20  2  0
 20 12  1  0
 19 15  1  0
  1 21  1  0
  1 22  1  0
  1 23  1  0
  3 24  1  0
  3 25  1  0
  3 26  1  0
  4 27  1  0
  5 28  1  0
  5 29  1  0
  9 30  1  0
  9 31  1  0
  9 32  1  0
 13 33  1  0
 14 34  1  0
 17 35  1  0
 17 36  1  0
 20 37  1  0
M  END
$$$$
[H]OC([H])([H])c1c([H])c(Cl)c(C(=O)N([H])C2=Nn3c2c([H])c(-c2c([H])nn(C([H])([H])[H])c2[H])c(-c2c([H])c([H])c([H])c([H])c2[H])c3=O)c([H])c1-c1c([H])c([H])c([H])c([H])c1[H]
     RDKit          3D

 61 66  0  0  0  0  0  0  0  0999 V2000
   -6.5321    3.4742   -1.4117 C   0  0  0  0  0  0  0  0  0  0  0  0
   -5.6917    2.2678   -1.3953 N   0  0  0  0  0  0  0  0  0  0  0  0
   -5.0521    1.7686   -0.3214 C   0  0  0  0  0  0  0  0  0  0  0  0
   -4.3520    0.6245   -0.6629 C   0  0  0  0  0  0  0  0  0  0  0  0
   -4.6041    0.4555   -2.0147 C   0  0  0  0  0  0  0  0  0  0  0  0
   -5.4074    1.4633   -2.3979 N   0  0  0  0  0  0  0  0  0  0  0  0
   -3.5444   -0.1859    0.2118 C   0  0  0  0  0  0  0  0  0  0  0  0
   -2.1891   -0.3538   -0.0089 C   0  0  0  0  0  0  0  0  0  0  0  0
   -1.3910   -1.1162    0.8115 C   0  0  0  0  0  0  0  0  0  0  0  0
   -0.0969   -1.6696    1.1626 C   0  0  0  0  0  0  0  0  0  0  0  0
    1.2471   -1.7110    0.7277 N   0  0  0  0  0  0  0  0  0  0  0  0
    1.6956   -1.0226   -0.3906 C   0  0  0  0  0  0  0  0  0  0  0  0
    0.9656   -0.3197   -1.0940 O   0  0  0  0  0  0  0  0  0  0  0  0
    3.1192   -1.1360   -0.7574 C   0  0  0  0  0  0  0  0  0  0  0  0
    4.0092   -0.2362   -0.2201 C   0  0  0  0  0  0  0  0  0  0  0  0
    5.3729   -0.2710   -0.5111 C   0  0  0  0  0  0  0  0  0  0  0  0
    6.2690    0.6920    0.1108 C   0  0  0  0  0  0  0  0  0  0  0  0
    7.3147    0.2994    0.9066 C   0  0  0  0  0  0  0  0  0  0  0  0
    8.1372    1.2735    1.4458 C   0  0  0  0  0  0  0  0  0  0  0  0
    7.9135    2.5997    1.1924 C   0  0  0  0  0  0  0  0  0  0  0  0
    6.8673    3.0088    0.3962 C   0  0  0  0  0  0  0  0  0  0  0  0
    6.0547    2.0379   -0.1365 C   0  0  0  0  0  0  0  0  0  0  0  0
    5.8732   -1.2260   -1.3620 C   0  0  0  0  0  0  0  0  0  0  0  0
    7.3065   -1.3343   -1.7575 C   0  0  0  0  0  0  0  0  0  0  0  0
    7.4162   -2.4284   -2.6528 O   0  0  0  0  0  0  0  0  0  0  0  0
    4.9363   -2.1256   -1.8892 C   0  0  0  0  0  0  0  0  0  0  0  0
    3.5955   -2.0863   -1.5984 C   0  0  0  0  0  0  0  0  0  0  0  0
    2.4607   -3.2354   -2.2842 Cl  0  0  0  0  0  0  0  0  0  0  0  0
   -0.7360   -2.2315    2.1866 N   0  0  0  0  0  0  0  0  0  0  0  0
   -1.9832   -1.7093    1.8629 N   0  0  0  0  0  0  0  0  0  0  0  0
   -3.2850   -1.5939    2.1400 C   0  0  0  0  0  0  0  0  0  0  0  0
   -3.8207   -2.1532    3.1234 O   0  0  0  0  0  0  0  0  0  0  0  0
   -4.1001   -0.8161    1.3030 C   0  0  0  0  0  0  0  0  0  0  0  0
   -5.5095   -0.6597    1.5465 C   0  0  0  0  0  0  0  0  0  0  0  0
   -6.4289   -1.1294    0.6456 C   0  0  0  0  0  0  0  0  0  0  0  0
   -7.8019   -0.9860    0.8676 C   0  0  0  0  0  0  0  0  0  0  0  0
   -8.2145   -0.3664    2.0036 C   0  0  0  0  0  0  0  0  0  0  0  0
   -7.3213    0.1085    2.9132 C   0  0  0  0  0  0  0  0  0  0  0  0
   -5.9574   -0.0389    2.6836 C   0  0  0  0  0  0  0  0  0  0  0  0
   -7.4070    3.3531   -0.7402 H   0  0  0  0  0  0  0  0  0  0  0  0
   -5.9301    4.3168   -0.9680 H   0  0  0  0  0  0  0  0  0  0  0  0
   -6.7732    3.7516   -2.4362 H   0  0  0  0  0  0  0  0  0  0  0  0
   -5.0879    2.2102    0.6666 H   0  0  0  0  0  0  0  0  0  0  0  0
   -4.2092   -0.3578   -2.6361 H   0  0  0  0  0  0  0  0  0  0  0  0
   -1.7504    0.1299   -0.8513 H   0  0  0  0  0  0  0  0  0  0  0  0
    1.9202   -2.2989    1.2947 H   0  0  0  0  0  0  0  0  0  0  0  0
    3.6312    0.5152    0.4460 H   0  0  0  0  0  0  0  0  0  0  0  0
    7.5033   -0.7611    1.1393 H   0  0  0  0  0  0  0  0  0  0  0  0
    8.9642    0.9654    2.0752 H   0  0  0  0  0  0  0  0  0  0  0  0
    8.5606    3.3767    1.6170 H   0  0  0  0  0  0  0  0  0  0  0  0
    6.6912    4.0634    0.1961 H   0  0  0  0  0  0  0  0  0  0  0  0
    5.2381    2.3749   -0.7597 H   0  0  0  0  0  0  0  0  0  0  0  0
    7.9892   -1.5877   -0.9425 H   0  0  0  0  0  0  0  0  0  0  0  0
    7.6178   -0.4489   -2.3511 H   0  0  0  0  0  0  0  0  0  0  0  0
    8.1126   -2.2894   -3.3181 H   0  0  0  0  0  0  0  0  0  0  0  0
    5.3123   -2.8920   -2.5659 H   0  0  0  0  0  0  0  0  0  0  0  0
   -6.1744   -1.6339   -0.2785 H   0  0  0  0  0  0  0  0  0  0  0  0
   -8.5251   -1.3635    0.1445 H   0  0  0  0  0  0  0  0  0  0  0  0
   -9.3034   -0.2740    2.1412 H   0  0  0  0  0  0  0  0  0  0  0  0
   -7.6833    0.5954    3.8047 H   0  0  0  0  0  0  0  0  0  0  0  0
   -5.2321    0.3235    3.3797 H   0  0  0  0  0  0  0  0  0  0  0  0
  1  2  1  0
  2  3  1  0
  3  4  2  0
  4  5  1  0
  5  6  2  0
  4  7  1  0
  7  8  1  0
  8  9  2  0
  9 10  1  0
 10 11  1  0
 11 12  1  0
 12 13  2  0
 12 14  1  0
 14 15  2  0
 15 16  1  0
 16 17  1  0
 17 18  2  0
 18 19  1  0
 19 20  2  0
 20 21  1  0
 21 22  2  0
 16 23  2  0
 23 24  1  0
 24 25  1  0
 23 26  1  0
 26 27  2  0
 27 28  1  0
 10 29  2  0
 29 30  1  0
 30 31  1  0
 31 32  2  0
 31 33  1  0
 33 34  1  0
 34 35  2  0
 35 36  1  0
 36 37  2  0
 37 38  1  0
 38 39  2  0
  6  2  1  0
 33  7  2  0
 39 34  1  0
 30  9  1  0
 27 14  1  0
 22 17  1  0
  1 40  1  0
  1 41  1  0
  1 42  1  0
  3 43  1  0
  5 44  1  0
  8 45  1  0
 11 46  1  0
 15 47  1  0
 18 48  1  0
 19 49  1  0
 20 50  1  0
 21 51  1  0
 22 52  1  0
 24 53  1  0
 24 54  1  0
 25 55  1  0
 26 56  1  0
 35 57  1  0
 36 58  1  0
 37 59  1  0
 38 60  1  0
 39 61  1  0
M  END
$$$$
[H]c1c(-c2c([H])c([H])c3c(c2[H])C([H])([H])C([H])([H])C3([H])[H])sc(C([H])([H])C([H])(C(=O)N([H])[H])N([H])C(=O)c2c([H])c([H])c([H])c([H])c2Br)c1[H]
     RDKit          3D

 50 53  0  0  0  0  0  0  0  0999 V2000
    2.1279    0.1635    1.6831 N   0  0  0  0  0  0  0  0  0  0  0  0
    1.9020    0.1488    0.3061 C   0  0  0  0  0  0  0  0  0  0  0  0
    1.4306    1.0717   -0.3406 O   0  0  0  0  0  0  0  0  0  0  0  0
    2.3084   -1.1513   -0.4841 C   0  0  0  0  0  0  0  0  0  0  0  0
    1.7929   -2.3112    0.2579 C   0  0  0  0  0  0  0  0  0  0  0  0
    0.2998   -1.9957    0.4465 C   0  0  0  0  0  0  0  0  0  0  0  0
   -0.2481   -1.5801    1.6286 C   0  0  0  0  0  0  0  0  0  0  0  0
   -1.4787   -1.0774    1.5964 C   0  0  0  0  0  0  0  0  0  0  0  0
   -2.1145   -1.0181    0.3637 C   0  0  0  0  0  0  0  0  0  0  0  0
   -0.9324   -1.6872   -0.6686 S   0  0  0  0  0  0  0  0  0  0  0  0
   -3.4585   -0.4732    0.1871 C   0  0  0  0  0  0  0  0  0  0  0  0
   -3.7541    0.6144    1.0570 C   0  0  0  0  0  0  0  0  0  0  0  0
   -4.9768    1.2044    1.0330 C   0  0  0  0  0  0  0  0  0  0  0  0
   -5.9354    0.7436    0.1637 C   0  0  0  0  0  0  0  0  0  0  0  0
   -7.3213    1.2560   -0.0782 C   0  0  0  0  0  0  0  0  0  0  0  0
   -7.5775    0.7559   -1.5052 C   0  0  0  0  0  0  0  0  0  0  0  0
   -6.9012   -0.6157   -1.4599 C   0  0  0  0  0  0  0  0  0  0  0  0
   -5.6613   -0.3220   -0.6885 C   0  0  0  0  0  0  0  0  0  0  0  0
   -4.3972   -0.9196   -0.6576 C   0  0  0  0  0  0  0  0  0  0  0  0
    3.7547   -0.8820   -0.4265 N   0  0  0  0  0  0  0  0  0  0  0  0
    4.2704    0.1979   -1.1892 C   0  0  0  0  0  0  0  0  0  0  0  0
    3.5599    0.8253   -1.9744 O   0  0  0  0  0  0  0  0  0  0  0  0
    5.6621    0.5930   -1.0357 C   0  0  0  0  0  0  0  0  0  0  0  0
    6.6759   -0.2778   -0.8717 C   0  0  0  0  0  0  0  0  0  0  0  0
    7.9692    0.1612   -0.5863 C   0  0  0  0  0  0  0  0  0  0  0  0
    8.1988    1.5329   -0.4755 C   0  0  0  0  0  0  0  0  0  0  0  0
    7.1450    2.4057   -0.6487 C   0  0  0  0  0  0  0  0  0  0  0  0
    5.8763    1.9675   -0.9268 C   0  0  0  0  0  0  0  0  0  0  0  0
    4.4301    3.2196   -1.1513 Br  0  0  0  0  0  0  0  0  0  0  0  0
    1.6669    0.9044    2.2741 H   0  0  0  0  0  0  0  0  0  0  0  0
    2.7414   -0.5306    2.1704 H   0  0  0  0  0  0  0  0  0  0  0  0
    1.9723   -0.9911   -1.5046 H   0  0  0  0  0  0  0  0  0  0  0  0
    1.8289   -3.2245   -0.3435 H   0  0  0  0  0  0  0  0  0  0  0  0
    2.2178   -2.4671    1.2439 H   0  0  0  0  0  0  0  0  0  0  0  0
    0.3216   -1.7085    2.5867 H   0  0  0  0  0  0  0  0  0  0  0  0
   -2.0112   -0.6948    2.4939 H   0  0  0  0  0  0  0  0  0  0  0  0
   -2.9808    0.9478    1.7239 H   0  0  0  0  0  0  0  0  0  0  0  0
   -5.1479    2.0484    1.7252 H   0  0  0  0  0  0  0  0  0  0  0  0
   -8.0779    0.7812    0.5751 H   0  0  0  0  0  0  0  0  0  0  0  0
   -7.3101    2.3672   -0.0412 H   0  0  0  0  0  0  0  0  0  0  0  0
   -7.0324    1.4155   -2.2210 H   0  0  0  0  0  0  0  0  0  0  0  0
   -8.6438    0.6867   -1.7473 H   0  0  0  0  0  0  0  0  0  0  0  0
   -6.6745   -1.0293   -2.4553 H   0  0  0  0  0  0  0  0  0  0  0  0
   -7.4972   -1.2972   -0.8027 H   0  0  0  0  0  0  0  0  0  0  0  0
   -4.2123   -1.7399   -1.3347 H   0  0  0  0  0  0  0  0  0  0  0  0
    4.3505   -1.4885    0.1689 H   0  0  0  0  0  0  0  0  0  0  0  0
    6.5588   -1.3745   -0.9437 H   0  0  0  0  0  0  0  0  0  0  0  0
    8.7788   -0.5189   -0.4558 H   0  0  0  0  0  0  0  0  0  0  0  0
    9.2027    1.8813   -0.2457 H   0  0  0  0  0  0  0  0  0  0  0  0
    7.3021    3.4823   -0.5571 H   0  0  0  0  0  0  0  0  0  0  0  0
  1  2  1  0
  2  3  2  0
  2  4  1  0
  4  5  1  0
  5  6  1  0
  6  7  2  0
  7  8  1  0
  8  9  2  0
  9 10  1  0
  9 11  1  0
 11 12  2  0
 12 13  1  0
 13 14  2  0
 14 15  1  0
 15 16  1  0
 16 17  1  0
 17 18  1  0
 18 19  2  0
  4 20  1  0
 20 21  1  0
 21 22  2  0
 21 23  1  0
 23 24  2  0
 24 25  1  0
 25 26  2  0
 26 27  1  0
 27 28  2  0
 28 29  1  0
 10  6  1  0
 19 11  1  0
 28 23  1  0
 18 14  1  0
  1 30  1  0
  1 31  1  0
  4 32  1  0
  5 33  1  0
  5 34  1  0
  7 35  1  0
  8 36  1  0
 12 37  1  0
 13 38  1  0
 15 39  1  0
 15 40  1  0
 16 41  1  0
 16 42  1  0
 17 43  1  0
 17 44  1  0
 19 45  1  0
 20 46  1  0
 24 47  1  0
 25 48  1  0
 26 49  1  0
 27 50  1  0
M  END
$$$$
[H]c1c(C#N)nc(F)c(N([H])C(=O)[C@]([H])(N([H])C(=O)N([H])c2c([H])c([H])c(C(F)(F)F)c([H])c2F)C([H])([H])C([H])(C([H])([H])[H])C([H])([H])[H])c1[H]
     RDKit          3D

 50 51  0  0  0  0  0  0  0  0999 V2000
   -2.3263   -3.6369   -1.1193 C   0  0  0  0  0  0  0  0  0  0  0  0
   -2.4515   -2.4233   -2.0056 C   0  0  0  0  0  0  0  0  0  0  0  0
   -2.7488   -2.9754   -3.4222 C   0  0  0  0  0  0  0  0  0  0  0  0
   -1.2219   -1.5916   -2.0407 C   0  0  0  0  0  0  0  0  0  0  0  0
   -0.7226   -0.9942   -0.7861 C   0  0  1  0  0  0  0  0  0  0  0  0
    0.4973   -0.2538   -1.1625 N   0  0  0  0  0  0  0  0  0  0  0  0
    1.6409   -0.1909   -0.2955 C   0  0  0  0  0  0  0  0  0  0  0  0
    1.5385   -0.8127    0.7710 O   0  0  0  0  0  0  0  0  0  0  0  0
    2.7762    0.5362   -0.6592 N   0  0  0  0  0  0  0  0  0  0  0  0
    3.9677    0.7396    0.0471 C   0  0  0  0  0  0  0  0  0  0  0  0
    4.2783    0.2388    1.2825 C   0  0  0  0  0  0  0  0  0  0  0  0
    5.4745    0.5052    1.9406 C   0  0  0  0  0  0  0  0  0  0  0  0
    6.4142    1.3041    1.3565 C   0  0  0  0  0  0  0  0  0  0  0  0
    6.1590    1.8347    0.1172 C   0  0  0  0  0  0  0  0  0  0  0  0
    4.9738    1.5607   -0.5149 C   0  0  0  0  0  0  0  0  0  0  0  0
    4.7343    2.0873   -1.7354 F   0  0  0  0  0  0  0  0  0  0  0  0
    7.7088    1.6395    1.9990 C   0  0  0  0  0  0  0  0  0  0  0  0
    8.7495    1.3606    1.1386 F   0  0  0  0  0  0  0  0  0  0  0  0
    7.7967    0.8941    3.1469 F   0  0  0  0  0  0  0  0  0  0  0  0
    7.6708    2.9931    2.2878 F   0  0  0  0  0  0  0  0  0  0  0  0
   -1.6524    0.1139   -0.2845 C   0  0  0  0  0  0  0  0  0  0  0  0
   -1.3245    1.2932   -0.5813 O   0  0  0  0  0  0  0  0  0  0  0  0
   -2.7913   -0.1373    0.4630 N   0  0  0  0  0  0  0  0  0  0  0  0
   -3.7409    0.7345    1.0065 C   0  0  0  0  0  0  0  0  0  0  0  0
   -3.6752    2.0860    0.8728 C   0  0  0  0  0  0  0  0  0  0  0  0
   -4.6445    2.8738    1.4757 C   0  0  0  0  0  0  0  0  0  0  0  0
   -5.6600    2.2965    2.2008 C   0  0  0  0  0  0  0  0  0  0  0  0
   -5.7168    0.9566    2.3264 N   0  0  0  0  0  0  0  0  0  0  0  0
   -4.7961    0.2025    1.7530 C   0  0  0  0  0  0  0  0  0  0  0  0
   -4.9103   -1.1463    1.9156 F   0  0  0  0  0  0  0  0  0  0  0  0
   -6.6535    3.1048    2.8415 C   0  0  0  0  0  0  0  0  0  0  0  0
   -7.4646    3.7389    3.3654 N   0  0  0  0  0  0  0  0  0  0  0  0
   -1.3009   -3.7325   -0.7111 H   0  0  0  0  0  0  0  0  0  0  0  0
   -2.4904   -4.5970   -1.6898 H   0  0  0  0  0  0  0  0  0  0  0  0
   -3.0913   -3.6692   -0.3140 H   0  0  0  0  0  0  0  0  0  0  0  0
   -3.3345   -1.8585   -1.6276 H   0  0  0  0  0  0  0  0  0  0  0  0
   -2.7613   -2.1598   -4.1607 H   0  0  0  0  0  0  0  0  0  0  0  0
   -1.8629   -3.6150   -3.6887 H   0  0  0  0  0  0  0  0  0  0  0  0
   -3.6912   -3.5246   -3.3643 H   0  0  0  0  0  0  0  0  0  0  0  0
   -1.4488   -0.7352   -2.7349 H   0  0  0  0  0  0  0  0  0  0  0  0
   -0.3749   -2.2106   -2.4623 H   0  0  0  0  0  0  0  0  0  0  0  0
   -0.4893   -1.6145    0.0614 H   0  0  0  0  0  0  0  0  0  0  0  0
    0.5267    0.2342   -2.0624 H   0  0  0  0  0  0  0  0  0  0  0  0
    2.7147    1.0058   -1.6163 H   0  0  0  0  0  0  0  0  0  0  0  0
    3.5768   -0.4006    1.8036 H   0  0  0  0  0  0  0  0  0  0  0  0
    5.6969    0.0991    2.9220 H   0  0  0  0  0  0  0  0  0  0  0  0
    6.8752    2.4776   -0.3936 H   0  0  0  0  0  0  0  0  0  0  0  0
   -2.9441   -1.1917    0.6671 H   0  0  0  0  0  0  0  0  0  0  0  0
   -2.9089    2.6063    0.3194 H   0  0  0  0  0  0  0  0  0  0  0  0
   -4.5714    3.9539    1.3519 H   0  0  0  0  0  0  0  0  0  0  0  0
  1  2  1  0
  2  3  1  0
  2  4  1  0
  4  5  1  0
  5  6  1  0
  6  7  1  0
  7  8  2  0
  7  9  1  0
  9 10  1  0
 10 11  2  0
 11 12  1  0
 12 13  2  0
 13 14  1  0
 14 15  2  0
 15 16  1  0
 13 17  1  0
 17 18  1  0
 17 19  1  0
 17 20  1  0
  5 21  1  0
 21 22  2  0
 21 23  1  0
 23 24  1  0
 24 25  2  0
 25 26  1  0
 26 27  2  0
 27 28  1  0
 28 29  2  0
 29 30  1  0
 27 31  1  0
 31 32  3  0
 15 10  1  0
 29 24  1  0
  1 33  1  0
  1 34  1  0
  1 35  1  0
  2 36  1  0
  3 37  1  0
  3 38  1  0
  3 39  1  0
  4 40  1  0
  4 41  1  0
  5 42  1  1
  6 43  1  0
  9 44  1  0
 11 45  1  0
 12 46  1  0
 14 47  1  0
 23 48  1  0
 25 49  1  0
 26 50  1  0
M  END
$$$$
[H]c1nc2c(N([H])C3([H])C([H])([H])C([H])([H])N(C(=O)C4([H])C([H])([H])C([H])([H])OC([H])([H])C4([H])[H])C([H])([H])C3([H])[H])nc(Oc3c([H])c([H])c([H])c([H])c3C([H])([H])[H])nc2c([H])c1[H]
     RDKit          3D

 62 66  0  0  0  0  0  0  0  0999 V2000
   -2.8946   -3.4432    0.0401 C   0  0  0  0  0  0  0  0  0  0  0  0
   -4.2840   -2.9529    0.1772 C   0  0  0  0  0  0  0  0  0  0  0  0
   -5.3363   -3.8243    0.2241 C   0  0  0  0  0  0  0  0  0  0  0  0
   -6.6222   -3.3301    0.3529 C   0  0  0  0  0  0  0  0  0  0  0  0
   -6.8373   -1.9770    0.4326 C   0  0  0  0  0  0  0  0  0  0  0  0
   -5.7409   -1.1246    0.3810 C   0  0  0  0  0  0  0  0  0  0  0  0
   -4.4397   -1.5491    0.2543 C   0  0  0  0  0  0  0  0  0  0  0  0
   -3.3537   -0.7744    0.1999 O   0  0  0  0  0  0  0  0  0  0  0  0
   -3.1229    0.5528    0.2411 C   0  0  0  0  0  0  0  0  0  0  0  0
   -1.8236    1.0231    0.1542 N   0  0  0  0  0  0  0  0  0  0  0  0
   -1.4993    2.3147    0.1859 C   0  0  0  0  0  0  0  0  0  0  0  0
   -0.1938    2.8054    0.1043 N   0  0  0  0  0  0  0  0  0  0  0  0
    1.0098    2.0397   -0.0371 C   0  0  0  0  0  0  0  0  0  0  0  0
    1.1006    1.2500   -1.3075 C   0  0  0  0  0  0  0  0  0  0  0  0
    2.1867    0.2106   -1.3123 C   0  0  0  0  0  0  0  0  0  0  0  0
    2.6266   -0.1419   -0.0003 N   0  0  0  0  0  0  0  0  0  0  0  0
    1.5911   -0.1803    1.0053 C   0  0  0  0  0  0  0  0  0  0  0  0
    1.2055    1.2618    1.2293 C   0  0  0  0  0  0  0  0  0  0  0  0
    3.9535   -0.4428    0.3699 C   0  0  0  0  0  0  0  0  0  0  0  0
    4.2610   -0.7442    1.5692 O   0  0  0  0  0  0  0  0  0  0  0  0
    5.0780   -0.4245   -0.6313 C   0  0  0  0  0  0  0  0  0  0  0  0
    4.8726   -1.4642   -1.6874 C   0  0  0  0  0  0  0  0  0  0  0  0
    5.8214   -2.6447   -1.5803 C   0  0  0  0  0  0  0  0  0  0  0  0
    7.1167   -2.2431   -1.2787 O   0  0  0  0  0  0  0  0  0  0  0  0
    7.0736   -1.8104    0.0584 C   0  0  0  0  0  0  0  0  0  0  0  0
    6.3984   -0.4582    0.0553 C   0  0  0  0  0  0  0  0  0  0  0  0
   -2.5581    3.1928    0.3142 C   0  0  0  0  0  0  0  0  0  0  0  0
   -2.3377    4.4962    0.3551 N   0  0  0  0  0  0  0  0  0  0  0  0
   -3.2823    5.4437    0.4770 C   0  0  0  0  0  0  0  0  0  0  0  0
   -4.5954    5.0334    0.5680 C   0  0  0  0  0  0  0  0  0  0  0  0
   -4.8984    3.6888    0.5321 C   0  0  0  0  0  0  0  0  0  0  0  0
   -3.8645    2.7523    0.4033 C   0  0  0  0  0  0  0  0  0  0  0  0
   -4.1043    1.4443    0.3637 N   0  0  0  0  0  0  0  0  0  0  0  0
   -2.7654   -4.4552    0.5258 H   0  0  0  0  0  0  0  0  0  0  0  0
   -2.1398   -2.7576    0.4775 H   0  0  0  0  0  0  0  0  0  0  0  0
   -2.7113   -3.5863   -1.0470 H   0  0  0  0  0  0  0  0  0  0  0  0
   -5.2294   -4.8999    0.1656 H   0  0  0  0  0  0  0  0  0  0  0  0
   -7.4829   -3.9756    0.3944 H   0  0  0  0  0  0  0  0  0  0  0  0
   -7.8117   -1.5321    0.5336 H   0  0  0  0  0  0  0  0  0  0  0  0
   -5.9665   -0.0616    0.4482 H   0  0  0  0  0  0  0  0  0  0  0  0
   -0.0600    3.8648    0.1507 H   0  0  0  0  0  0  0  0  0  0  0  0
    1.9146    2.7251   -0.0867 H   0  0  0  0  0  0  0  0  0  0  0  0
    0.1376    0.7374   -1.4624 H   0  0  0  0  0  0  0  0  0  0  0  0
    1.2659    1.8958   -2.1917 H   0  0  0  0  0  0  0  0  0  0  0  0
    3.0748    0.5282   -1.8996 H   0  0  0  0  0  0  0  0  0  0  0  0
    1.8084   -0.7137   -1.8070 H   0  0  0  0  0  0  0  0  0  0  0  0
    0.6780   -0.7038    0.6531 H   0  0  0  0  0  0  0  0  0  0  0  0
    1.9594   -0.5857    1.9703 H   0  0  0  0  0  0  0  0  0  0  0  0
    0.2356    1.2002    1.7909 H   0  0  0  0  0  0  0  0  0  0  0  0
    1.9296    1.7622    1.9374 H   0  0  0  0  0  0  0  0  0  0  0  0
    5.0317    0.5794   -1.1544 H   0  0  0  0  0  0  0  0  0  0  0  0
    3.8454   -1.9278   -1.5944 H   0  0  0  0  0  0  0  0  0  0  0  0
    5.0253   -1.0439   -2.6903 H   0  0  0  0  0  0  0  0  0  0  0  0
    5.8484   -3.1400   -2.5677 H   0  0  0  0  0  0  0  0  0  0  0  0
    5.4104   -3.3418   -0.8127 H   0  0  0  0  0  0  0  0  0  0  0  0
    8.0934   -1.6621    0.4691 H   0  0  0  0  0  0  0  0  0  0  0  0
    6.4998   -2.5567    0.6165 H   0  0  0  0  0  0  0  0  0  0  0  0
    7.1134    0.3179   -0.2878 H   0  0  0  0  0  0  0  0  0  0  0  0
    6.2149   -0.2187    1.1436 H   0  0  0  0  0  0  0  0  0  0  0  0
   -3.0773    6.5061    0.5085 H   0  0  0  0  0  0  0  0  0  0  0  0
   -5.4191    5.7397    0.6687 H   0  0  0  0  0  0  0  0  0  0  0  0
   -5.9301    3.3263    0.6022 H   0  0  0  0  0  0  0  0  0  0  0  0
  1  2  1  0
  2  3  2  0
  3  4  1  0
  4  5  2  0
  5  6  1  0
  6  7  2  0
  7  8  1  0
  8  9  1  0
  9 10  2  0
 10 11  1  0
 11 12  1  0
 12 13  1  0
 13 14  1  0
 14 15  1  0
 15 16  1  0
 16 17  1  0
 17 18  1  0
 16 19  1  0
 19 20  2  0
 19 21  1  0
 21 22  1  0
 22 23  1  0
 23 24  1  0
 24 25  1  0
 25 26  1  0
 11 27  2  0
 27 28  1  0
 28 29  2  0
 29 30  1  0
 30 31  2  0
 31 32  1  0
 32 33  2  0
  7  2  1  0
 33  9  1  0
 18 13  1  0
 26 21  1  0
 32 27  1  0
  1 34  1  0
  1 35  1  0
  1 36  1  0
  3 37  1  0
  4 38  1  0
  5 39  1  0
  6 40  1  0
 12 41  1  0
 13 42  1  0
 14 43  1  0
 14 44  1  0
 15 45  1  0
 15 46  1  0
 17 47  1  0
 17 48  1  0
 18 49  1  0
 18 50  1  0
 21 51  1  0
 22 52  1  0
 22 53  1  0
 23 54  1  0
 23 55  1  0
 25 56  1  0
 25 57  1  0
 26 58  1  0
 26 59  1  0
 29 60  1  0
 30 61  1  0
 31 62  1  0
M  END
$$$$
[H]OC(C([H])([H])[H])(C([H])([H])[H])[C@]([H])(N([H])C(=O)N([H])c1c([H])c([H])c(-c2c([H])c([H])c([H])c([H])c2[H])c([H])c1[H])C([H])([H])[H]
     RDKit          3D

 44 45  0  0  0  0  0  0  0  0999 V2000
   -4.6925    2.0106    0.7990 C   0  0  0  0  0  0  0  0  0  0  0  0
   -4.0480    0.9001    0.0005 C   0  0  1  0  0  0  0  0  0  0  0  0
   -2.9336    0.4099    0.7796 N   0  0  0  0  0  0  0  0  0  0  0  0
   -1.5857    0.4854    0.2823 C   0  0  0  0  0  0  0  0  0  0  0  0
   -1.4442    0.9937   -0.8482 O   0  0  0  0  0  0  0  0  0  0  0  0
   -0.5683   -0.0118    1.1011 N   0  0  0  0  0  0  0  0  0  0  0  0
    0.7874   -0.0068    0.7819 C   0  0  0  0  0  0  0  0  0  0  0  0
    1.3411    0.7179   -0.2081 C   0  0  0  0  0  0  0  0  0  0  0  0
    2.7256    0.6285   -0.4544 C   0  0  0  0  0  0  0  0  0  0  0  0
    3.5603   -0.1764    0.2783 C   0  0  0  0  0  0  0  0  0  0  0  0
    2.9853   -0.9135    1.2891 C   0  0  0  0  0  0  0  0  0  0  0  0
    1.6366   -0.8299    1.5327 C   0  0  0  0  0  0  0  0  0  0  0  0
    5.0029   -0.2497   -0.0003 C   0  0  0  0  0  0  0  0  0  0  0  0
    5.6823   -1.4206    0.2352 C   0  0  0  0  0  0  0  0  0  0  0  0
    7.0489   -1.5186   -0.0185 C   0  0  0  0  0  0  0  0  0  0  0  0
    7.7392   -0.4099   -0.5198 C   0  0  0  0  0  0  0  0  0  0  0  0
    7.0525    0.7614   -0.7539 C   0  0  0  0  0  0  0  0  0  0  0  0
    5.7021    0.8327   -0.4951 C   0  0  0  0  0  0  0  0  0  0  0  0
   -4.9952   -0.2564   -0.2223 C   0  0  0  0  0  0  0  0  0  0  0  0
   -4.2388   -1.3616   -0.9268 C   0  0  0  0  0  0  0  0  0  0  0  0
   -6.1073    0.1774   -1.1321 C   0  0  0  0  0  0  0  0  0  0  0  0
   -5.4621   -0.7674    0.9884 O   0  0  0  0  0  0  0  0  0  0  0  0
   -4.9357    1.6610    1.8163 H   0  0  0  0  0  0  0  0  0  0  0  0
   -5.5520    2.4695    0.3112 H   0  0  0  0  0  0  0  0  0  0  0  0
   -3.9036    2.8162    0.8737 H   0  0  0  0  0  0  0  0  0  0  0  0
   -3.7192    1.3115   -0.9741 H   0  0  0  0  0  0  0  0  0  0  0  0
   -3.1269    0.0004    1.7093 H   0  0  0  0  0  0  0  0  0  0  0  0
   -0.8439   -0.4296    2.0539 H   0  0  0  0  0  0  0  0  0  0  0  0
    0.7763    1.3885   -0.8321 H   0  0  0  0  0  0  0  0  0  0  0  0
    3.1389    1.2199   -1.2536 H   0  0  0  0  0  0  0  0  0  0  0  0
    3.6540   -1.5484    1.8643 H   0  0  0  0  0  0  0  0  0  0  0  0
    1.2412   -1.4461    2.3559 H   0  0  0  0  0  0  0  0  0  0  0  0
    5.1158   -2.2638    0.6250 H   0  0  0  0  0  0  0  0  0  0  0  0
    7.5519   -2.4345    0.1717 H   0  0  0  0  0  0  0  0  0  0  0  0
    8.8036   -0.4875   -0.7172 H   0  0  0  0  0  0  0  0  0  0  0  0
    7.5502    1.6428   -1.1417 H   0  0  0  0  0  0  0  0  0  0  0  0
    5.1477    1.7440   -0.6732 H   0  0  0  0  0  0  0  0  0  0  0  0
   -3.1981   -1.4701   -0.5753 H   0  0  0  0  0  0  0  0  0  0  0  0
   -4.3031   -1.2106   -2.0386 H   0  0  0  0  0  0  0  0  0  0  0  0
   -4.7291   -2.3548   -0.7063 H   0  0  0  0  0  0  0  0  0  0  0  0
   -5.6583    0.3696   -2.1360 H   0  0  0  0  0  0  0  0  0  0  0  0
   -6.6079    1.0495   -0.7028 H   0  0  0  0  0  0  0  0  0  0  0  0
   -6.8366   -0.6619   -1.2706 H   0  0  0  0  0  0  0  0  0  0  0  0
   -4.7540   -1.3607    1.3890 H   0  0  0  0  0  0  0  0  0  0  0  0
  1  2  1  0
  2  3  1  0
  3  4  1  0
  4  5  2  0
  4  6  1  0
  6  7  1  0
  7  8  2  0
  8  9  1  0
  9 10  2  0
 10 11  1  0
 11 12  2  0
 10 13  1  0
 13 14  2  0
 14 15  1  0
 15 16  2  0
 16 17  1  0
 17 18  2  0
  2 19  1  0
 19 20  1  0
 19 21  1  0
 19 22  1  0
 12  7  1  0
 18 13  1  0
  1 23  1  0
  1 24  1  0
  1 25  1  0
  2 26  1  6
  3 27  1  0
  6 28  1  0
  8 29  1  0
  9 30  1  0
 11 31  1  0
 12 32  1  0
 14 33  1  0
 15 34  1  0
 16 35  1  0
 17 36  1  0
 18 37  1  0
 20 38  1  0
 20 39  1  0
 20 40  1  0
 21 41  1  0
 21 42  1  0
 21 43  1  0
 22 44  1  0
M  END
$$$$
[H]OC(=O)c1c([H])c(C([H])([H])C([H])([H])[H])c(-c2nc(-c3c([H])c([H])c([H])c([H])c3Cl)c(Cl)c([H])c2[H])c([H])c1C([H])([H])[H]
     RDKit          3D

 43 45  0  0  0  0  0  0  0  0999 V2000
   -1.9890   -2.8428    1.3878 C   0  0  0  0  0  0  0  0  0  0  0  0
   -2.6001   -1.5244    1.8560 C   0  0  0  0  0  0  0  0  0  0  0  0
   -2.4876   -0.4765    0.8233 C   0  0  0  0  0  0  0  0  0  0  0  0
   -3.6472   -0.0766    0.1295 C   0  0  0  0  0  0  0  0  0  0  0  0
   -3.6413    0.8629   -0.8653 C   0  0  0  0  0  0  0  0  0  0  0  0
   -2.4233    1.4201   -1.1727 C   0  0  0  0  0  0  0  0  0  0  0  0
   -2.3605    2.4529   -2.2533 C   0  0  0  0  0  0  0  0  0  0  0  0
   -1.2845    1.0450   -0.5092 C   0  0  0  0  0  0  0  0  0  0  0  0
   -1.2755    0.0749    0.5227 C   0  0  0  0  0  0  0  0  0  0  0  0
    0.0251   -0.2679    1.0722 C   0  0  0  0  0  0  0  0  0  0  0  0
    0.3324   -0.6755    2.3192 C   0  0  0  0  0  0  0  0  0  0  0  0
    1.6410   -0.9252    2.7521 C   0  0  0  0  0  0  0  0  0  0  0  0
    2.6930   -0.7551    1.8897 C   0  0  0  0  0  0  0  0  0  0  0  0
    4.3354   -1.0591    2.4024 Cl  0  0  0  0  0  0  0  0  0  0  0  0
    2.3778   -0.3315    0.6006 C   0  0  0  0  0  0  0  0  0  0  0  0
    1.1215   -0.1098    0.2413 N   0  0  0  0  0  0  0  0  0  0  0  0
    3.5203   -0.1613   -0.2879 C   0  0  0  0  0  0  0  0  0  0  0  0
    4.4204   -1.1642   -0.5578 C   0  0  0  0  0  0  0  0  0  0  0  0
    5.4984   -0.9619   -1.4232 C   0  0  0  0  0  0  0  0  0  0  0  0
    5.6726    0.2618   -2.0230 C   0  0  0  0  0  0  0  0  0  0  0  0
    4.7899    1.2653   -1.7660 C   0  0  0  0  0  0  0  0  0  0  0  0
    3.7141    1.0524   -0.8978 C   0  0  0  0  0  0  0  0  0  0  0  0
    2.6620    2.4241   -0.6455 Cl  0  0  0  0  0  0  0  0  0  0  0  0
   -4.8664    1.2520   -1.5635 C   0  0  0  0  0  0  0  0  0  0  0  0
   -4.9095    2.1761   -2.5665 O   0  0  0  0  0  0  0  0  0  0  0  0
   -5.9878    0.7224   -1.2504 O   0  0  0  0  0  0  0  0  0  0  0  0
   -1.4007   -3.3208    2.1981 H   0  0  0  0  0  0  0  0  0  0  0  0
   -2.7501   -3.5867    1.0818 H   0  0  0  0  0  0  0  0  0  0  0  0
   -1.3015   -2.6612    0.5091 H   0  0  0  0  0  0  0  0  0  0  0  0
   -3.7341   -1.7668    1.8855 H   0  0  0  0  0  0  0  0  0  0  0  0
   -2.4052   -1.2656    2.8755 H   0  0  0  0  0  0  0  0  0  0  0  0
   -4.6004   -0.5241    0.3827 H   0  0  0  0  0  0  0  0  0  0  0  0
   -1.2686    2.7480   -2.3238 H   0  0  0  0  0  0  0  0  0  0  0  0
   -2.8743    3.3850   -1.9998 H   0  0  0  0  0  0  0  0  0  0  0  0
   -2.5794    2.0400   -3.2568 H   0  0  0  0  0  0  0  0  0  0  0  0
   -0.3349    1.4909   -0.7599 H   0  0  0  0  0  0  0  0  0  0  0  0
   -0.4021   -0.7961    3.0752 H   0  0  0  0  0  0  0  0  0  0  0  0
    1.8018   -1.2561    3.7854 H   0  0  0  0  0  0  0  0  0  0  0  0
    4.2983   -2.1460   -0.0900 H   0  0  0  0  0  0  0  0  0  0  0  0
    6.2007   -1.7424   -1.6347 H   0  0  0  0  0  0  0  0  0  0  0  0
    6.5178    0.4452   -2.7111 H   0  0  0  0  0  0  0  0  0  0  0  0
    4.9271    2.2402   -2.2433 H   0  0  0  0  0  0  0  0  0  0  0  0
   -5.4255    3.0386   -2.4541 H   0  0  0  0  0  0  0  0  0  0  0  0
  1  2  1  0
  2  3  1  0
  3  4  2  0
  4  5  1  0
  5  6  2  0
  6  7  1  0
  6  8  1  0
  8  9  2  0
  9 10  1  0
 10 11  2  0
 11 12  1  0
 12 13  2  0
 13 14  1  0
 13 15  1  0
 15 16  2  0
 15 17  1  0
 17 18  2  0
 18 19  1  0
 19 20  2  0
 20 21  1  0
 21 22  2  0
 22 23  1  0
  5 24  1  0
 24 25  1  0
 24 26  2  0
  9  3  1  0
 16 10  1  0
 22 17  1  0
  1 27  1  0
  1 28  1  0
  1 29  1  0
  2 30  1  0
  2 31  1  0
  4 32  1  0
  7 33  1  0
  7 34  1  0
  7 35  1  0
  8 36  1  0
 11 37  1  0
 12 38  1  0
 18 39  1  0
 19 40  1  0
 20 41  1  0
 21 42  1  0
 25 43  1  0
M  END
$$$$
[H]c1c([H])c([H])c(-c2c([H])c([H])c([H])c(C(=O)N([H])[C@@]([H])(c3c([H])c([H])c(OC(F)(F)F)c([H])c3[H])C([H])([H])[H])c2[H])c([H])c1[H]
     RDKit          3D

 46 48  0  0  0  0  0  0  0  0999 V2000
   -1.6877   -1.3622   -3.0498 C   0  0  0  0  0  0  0  0  0  0  0  0
   -1.8248   -1.4991   -1.5713 C   0  0  1  0  0  0  0  0  0  0  0  0
   -0.5627   -1.3486   -0.8717 N   0  0  0  0  0  0  0  0  0  0  0  0
   -0.0477   -2.2815    0.0310 C   0  0  0  0  0  0  0  0  0  0  0  0
   -0.7289   -3.3173    0.2458 O   0  0  0  0  0  0  0  0  0  0  0  0
    1.2085   -2.1317    0.7277 C   0  0  0  0  0  0  0  0  0  0  0  0
    1.6428   -3.0947    1.6193 C   0  0  0  0  0  0  0  0  0  0  0  0
    2.8426   -2.9298    2.2713 C   0  0  0  0  0  0  0  0  0  0  0  0
    3.6168   -1.8128    2.0442 C   0  0  0  0  0  0  0  0  0  0  0  0
    3.1994   -0.8399    1.1568 C   0  0  0  0  0  0  0  0  0  0  0  0
    1.9925   -1.0218    0.5112 C   0  0  0  0  0  0  0  0  0  0  0  0
    3.9916    0.3546    0.8915 C   0  0  0  0  0  0  0  0  0  0  0  0
    3.3906    1.5665    0.5606 C   0  0  0  0  0  0  0  0  0  0  0  0
    4.1658    2.6821    0.3143 C   0  0  0  0  0  0  0  0  0  0  0  0
    5.5454    2.6170    0.3913 C   0  0  0  0  0  0  0  0  0  0  0  0
    6.1402    1.4099    0.7208 C   0  0  0  0  0  0  0  0  0  0  0  0
    5.3694    0.3063    0.9642 C   0  0  0  0  0  0  0  0  0  0  0  0
   -2.6909   -0.3650   -1.0896 C   0  0  0  0  0  0  0  0  0  0  0  0
   -2.7500   -0.0544    0.2604 C   0  0  0  0  0  0  0  0  0  0  0  0
   -3.5323    0.9746    0.7279 C   0  0  0  0  0  0  0  0  0  0  0  0
   -4.2801    1.7246   -0.1456 C   0  0  0  0  0  0  0  0  0  0  0  0
   -5.0471    2.7490    0.3994 O   0  0  0  0  0  0  0  0  0  0  0  0
   -6.3631    2.5903    0.8346 C   0  0  0  0  0  0  0  0  0  0  0  0
   -6.7978    3.8240    1.3137 F   0  0  0  0  0  0  0  0  0  0  0  0
   -7.1555    2.1542   -0.2015 F   0  0  0  0  0  0  0  0  0  0  0  0
   -6.3857    1.6503    1.8408 F   0  0  0  0  0  0  0  0  0  0  0  0
   -4.2265    1.4245   -1.4741 C   0  0  0  0  0  0  0  0  0  0  0  0
   -3.4414    0.3893   -1.9566 C   0  0  0  0  0  0  0  0  0  0  0  0
   -2.6545   -1.6469   -3.5138 H   0  0  0  0  0  0  0  0  0  0  0  0
   -0.9250   -2.0682   -3.4705 H   0  0  0  0  0  0  0  0  0  0  0  0
   -1.4755   -0.3172   -3.3830 H   0  0  0  0  0  0  0  0  0  0  0  0
   -2.3571   -2.4210   -1.3344 H   0  0  0  0  0  0  0  0  0  0  0  0
   -0.0378   -0.4800   -1.0809 H   0  0  0  0  0  0  0  0  0  0  0  0
    1.0441   -3.9973    1.8196 H   0  0  0  0  0  0  0  0  0  0  0  0
    3.2096   -3.6805    2.9844 H   0  0  0  0  0  0  0  0  0  0  0  0
    4.5650   -1.6606    2.5454 H   0  0  0  0  0  0  0  0  0  0  0  0
    1.7181   -0.2138   -0.1799 H   0  0  0  0  0  0  0  0  0  0  0  0
    2.3190    1.6266    0.4985 H   0  0  0  0  0  0  0  0  0  0  0  0
    3.7209    3.6386    0.0545 H   0  0  0  0  0  0  0  0  0  0  0  0
    6.1473    3.4805    0.2007 H   0  0  0  0  0  0  0  0  0  0  0  0
    7.2312    1.3277    0.7895 H   0  0  0  0  0  0  0  0  0  0  0  0
    5.8303   -0.6414    1.2227 H   0  0  0  0  0  0  0  0  0  0  0  0
   -2.1571   -0.6527    0.9321 H   0  0  0  0  0  0  0  0  0  0  0  0
   -3.5366    1.1683    1.7914 H   0  0  0  0  0  0  0  0  0  0  0  0
   -4.8081    2.0053   -2.1672 H   0  0  0  0  0  0  0  0  0  0  0  0
   -3.4176    0.1743   -3.0063 H   0  0  0  0  0  0  0  0  0  0  0  0
  1  2  1  0
  2  3  1  0
  3  4  1  0
  4  5  2  0
  4  6  1  0
  6  7  2  0
  7  8  1  0
  8  9  2  0
  9 10  1  0
 10 11  2  0
 10 12  1  0
 12 13  2  0
 13 14  1  0
 14 15  2  0
 15 16  1  0
 16 17  2  0
  2 18  1  0
 18 19  2  0
 19 20  1  0
 20 21  2  0
 21 22  1  0
 22 23  1  0
 23 24  1  0
 23 25  1  0
 23 26  1  0
 21 27  1  0
 27 28  2  0
 11  6  1  0
 17 12  1  0
 28 18  1  0
  1 29  1  0
  1 30  1  0
  1 31  1  0
  2 32  1  6
  3 33  1  0
  7 34  1  0
  8 35  1  0
  9 36  1  0
 11 37  1  0
 13 38  1  0
 14 39  1  0
 15 40  1  0
 16 41  1  0
 17 42  1  0
 19 43  1  0
 20 44  1  0
 27 45  1  0
 28 46  1  0
M  END
$$$$
[H]c1c([H])c(S(=O)(=O)N2C([H])([H])C([H])([H])C([H])(N([H])C(=O)C3([H])C([H])([H])C([H])([H])C([H])([H])C([H])([H])C3([H])[H])C([H])([H])C2([H])[H])c([H])c([H])c1N([H])[H]
     RDKit          3D

 52 54  0  0  0  0  0  0  0  0999 V2000
   -7.8600    1.9580    0.8413 N   0  0  0  0  0  0  0  0  0  0  0  0
   -6.8242    1.0428    0.5081 C   0  0  0  0  0  0  0  0  0  0  0  0
   -6.5811   -0.0453    1.3209 C   0  0  0  0  0  0  0  0  0  0  0  0
   -5.5805   -0.9259    0.9957 C   0  0  0  0  0  0  0  0  0  0  0  0
   -4.7858   -0.7679   -0.1370 C   0  0  0  0  0  0  0  0  0  0  0  0
   -5.0511    0.3275   -0.9301 C   0  0  0  0  0  0  0  0  0  0  0  0
   -6.0487    1.2197   -0.6206 C   0  0  0  0  0  0  0  0  0  0  0  0
   -3.5137   -1.8973   -0.5426 S   0  0  0  0  0  0  0  0  0  0  0  0
   -3.4055   -1.9402   -2.0369 O   0  0  0  0  0  0  0  0  0  0  0  0
   -3.8889   -3.2573   -0.0363 O   0  0  0  0  0  0  0  0  0  0  0  0
   -2.0494   -1.4345    0.1784 N   0  0  0  0  0  0  0  0  0  0  0  0
   -1.5482   -0.1555   -0.2343 C   0  0  0  0  0  0  0  0  0  0  0  0
   -0.4294   -0.2459   -1.2391 C   0  0  0  0  0  0  0  0  0  0  0  0
    0.7085   -1.1011   -0.8159 C   0  0  0  0  0  0  0  0  0  0  0  0
    1.9106   -0.3782   -0.5066 N   0  0  0  0  0  0  0  0  0  0  0  0
    3.1447   -0.5593   -1.1695 C   0  0  0  0  0  0  0  0  0  0  0  0
    3.2011   -1.4040   -2.0879 O   0  0  0  0  0  0  0  0  0  0  0  0
    4.3737    0.1896   -0.8429 C   0  0  0  0  0  0  0  0  0  0  0  0
    4.1745    1.6928   -1.0240 C   0  0  0  0  0  0  0  0  0  0  0  0
    5.5560    2.3122   -1.0377 C   0  0  0  0  0  0  0  0  0  0  0  0
    6.5878    1.4110   -0.4419 C   0  0  0  0  0  0  0  0  0  0  0  0
    6.1301    0.6622    0.7703 C   0  0  0  0  0  0  0  0  0  0  0  0
    4.8059   -0.0136    0.5912 C   0  0  0  0  0  0  0  0  0  0  0  0
    0.3307   -1.9132    0.3764 C   0  0  0  0  0  0  0  0  0  0  0  0
   -1.0465   -2.4727    0.1667 C   0  0  0  0  0  0  0  0  0  0  0  0
   -8.2796    1.9715    1.7789 H   0  0  0  0  0  0  0  0  0  0  0  0
   -8.1970    2.6242    0.1218 H   0  0  0  0  0  0  0  0  0  0  0  0
   -7.2139   -0.1551    2.2069 H   0  0  0  0  0  0  0  0  0  0  0  0
   -5.3814   -1.7782    1.6219 H   0  0  0  0  0  0  0  0  0  0  0  0
   -4.4736    0.5287   -1.8425 H   0  0  0  0  0  0  0  0  0  0  0  0
   -6.2231    2.0723   -1.2773 H   0  0  0  0  0  0  0  0  0  0  0  0
   -1.2166    0.4141    0.6591 H   0  0  0  0  0  0  0  0  0  0  0  0
   -2.3809    0.4180   -0.6824 H   0  0  0  0  0  0  0  0  0  0  0  0
   -0.1135    0.8186   -1.4416 H   0  0  0  0  0  0  0  0  0  0  0  0
   -0.8823   -0.5887   -2.1932 H   0  0  0  0  0  0  0  0  0  0  0  0
    0.9204   -1.8242   -1.6580 H   0  0  0  0  0  0  0  0  0  0  0  0
    1.8719    0.3298    0.2596 H   0  0  0  0  0  0  0  0  0  0  0  0
    5.2238   -0.1122   -1.4857 H   0  0  0  0  0  0  0  0  0  0  0  0
    3.5965    1.9278   -1.9318 H   0  0  0  0  0  0  0  0  0  0  0  0
    3.6747    2.0409   -0.0886 H   0  0  0  0  0  0  0  0  0  0  0  0
    5.5556    3.3318   -0.5942 H   0  0  0  0  0  0  0  0  0  0  0  0
    5.8213    2.4492   -2.1277 H   0  0  0  0  0  0  0  0  0  0  0  0
    7.0604    0.7177   -1.1767 H   0  0  0  0  0  0  0  0  0  0  0  0
    7.4366    2.0753   -0.1035 H   0  0  0  0  0  0  0  0  0  0  0  0
    6.9003   -0.1359    0.9697 H   0  0  0  0  0  0  0  0  0  0  0  0
    6.1671    1.3432    1.6535 H   0  0  0  0  0  0  0  0  0  0  0  0
    4.8040   -1.0806    0.8699 H   0  0  0  0  0  0  0  0  0  0  0  0
    4.0642    0.5593    1.2200 H   0  0  0  0  0  0  0  0  0  0  0  0
    1.0399   -2.7438    0.4822 H   0  0  0  0  0  0  0  0  0  0  0  0
    0.2923   -1.2512    1.2607 H   0  0  0  0  0  0  0  0  0  0  0  0
   -1.1122   -3.1009   -0.7563 H   0  0  0  0  0  0  0  0  0  0  0  0
   -1.2655   -3.1553    1.0139 H   0  0  0  0  0  0  0  0  0  0  0  0
  1  2  1  0
  2  3  2  0
  3  4  1  0
  4  5  2  0
  5  6  1  0
  6  7  2  0
  5  8  1  0
  8  9  2  0
  8 10  2  0
  8 11  1  0
 11 12  1  0
 12 13  1  0
 13 14  1  0
 14 15  1  0
 15 16  1  0
 16 17  2  0
 16 18  1  0
 18 19  1  0
 19 20  1  0
 20 21  1  0
 21 22  1  0
 22 23  1  0
 14 24  1  0
 24 25  1  0
  7  2  1  0
 25 11  1  0
 23 18  1  0
  1 26  1  0
  1 27  1  0
  3 28  1  0
  4 29  1  0
  6 30  1  0
  7 31  1  0
 12 32  1  0
 12 33  1  0
 13 34  1  0
 13 35  1  0
 14 36  1  0
 15 37  1  0
 18 38  1  0
 19 39  1  0
 19 40  1  0
 20 41  1  0
 20 42  1  0
 21 43  1  0
 21 44  1  0
 22 45  1  0
 22 46  1  0
 23 47  1  0
 23 48  1  0
 24 49  1  0
 24 50  1  0
 25 51  1  0
 25 52  1  0
M  END
$$$$
[H]c1c(N2N=C(N([H])[H])C([H])([H])C2([H])[H])c([H])c2c([H])nn([H])c2c1[H]
     RDKit          3D

 26 28  0  0  0  0  0  0  0  0999 V2000
   -4.5210   -0.5484    0.7208 N   0  0  0  0  0  0  0  0  0  0  0  0
   -3.2653   -0.1027    0.1980 C   0  0  0  0  0  0  0  0  0  0  0  0
   -2.1355   -0.4330    0.7147 N   0  0  0  0  0  0  0  0  0  0  0  0
   -1.0666    0.1182    0.0379 N   0  0  0  0  0  0  0  0  0  0  0  0
   -1.5798    1.0382   -0.9444 C   0  0  0  0  0  0  0  0  0  0  0  0
   -3.0804    0.7806   -0.9824 C   0  0  0  0  0  0  0  0  0  0  0  0
    0.3206   -0.1443    0.2382 C   0  0  0  0  0  0  0  0  0  0  0  0
    0.7590   -1.0434    1.2021 C   0  0  0  0  0  0  0  0  0  0  0  0
    2.1005   -1.2922    1.3902 C   0  0  0  0  0  0  0  0  0  0  0  0
    3.0417   -0.6419    0.6123 C   0  0  0  0  0  0  0  0  0  0  0  0
    4.3953   -0.6749    0.5616 N   0  0  0  0  0  0  0  0  0  0  0  0
    4.8114    0.1574   -0.3835 N   0  0  0  0  0  0  0  0  0  0  0  0
    3.7777    0.7596   -0.9814 C   0  0  0  0  0  0  0  0  0  0  0  0
    2.6386    0.2566   -0.3531 C   0  0  0  0  0  0  0  0  0  0  0  0
    1.2878    0.4805   -0.5133 C   0  0  0  0  0  0  0  0  0  0  0  0
   -5.3741   -0.6514    0.1349 H   0  0  0  0  0  0  0  0  0  0  0  0
   -4.6214   -0.7897    1.7317 H   0  0  0  0  0  0  0  0  0  0  0  0
   -1.1830    0.7890   -1.9450 H   0  0  0  0  0  0  0  0  0  0  0  0
   -1.3895    2.1018   -0.6635 H   0  0  0  0  0  0  0  0  0  0  0  0
   -3.3954    0.2905   -1.9244 H   0  0  0  0  0  0  0  0  0  0  0  0
   -3.6549    1.7138   -0.8938 H   0  0  0  0  0  0  0  0  0  0  0  0
    0.0238   -1.5503    1.8086 H   0  0  0  0  0  0  0  0  0  0  0  0
    2.4599   -1.9978    2.1456 H   0  0  0  0  0  0  0  0  0  0  0  0
    4.9586   -1.2840    1.1973 H   0  0  0  0  0  0  0  0  0  0  0  0
    3.7494    1.4861   -1.7811 H   0  0  0  0  0  0  0  0  0  0  0  0
    0.9427    1.1816   -1.2647 H   0  0  0  0  0  0  0  0  0  0  0  0
  1  2  1  0
  2  3  2  0
  3  4  1  0
  4  5  1  0
  5  6  1  0
  4  7  1  0
  7  8  2  0
  8  9  1  0
  9 10  2  0
 10 11  1  0
 11 12  1  0
 12 13  2  0
 13 14  1  0
 14 15  2  0
  6  2  1  0
 15  7  1  0
 14 10  1  0
  1 16  1  0
  1 17  1  0
  5 18  1  0
  5 19  1  0
  6 20  1  0
  6 21  1  0
  8 22  1  0
  9 23  1  0
 11 24  1  0
 13 25  1  0
 15 26  1  0
M  END
$$$$
[H]c1nc(C([H])([H])[H])nc([H])c1C([H])(c1c([H])c([H])c(C(=O)N2C([H])([H])C([H])([H])N(c3noc(C(=O)N4C([H])([H])C([H])([H])C([H])([H])C4([H])[H])c3[H])C([H])([H])C2([H])[H])c([H])c1[H])C([H])([H])[H]
     RDKit          3D

 65 69  0  0  0  0  0  0  0  0999 V2000
    5.5116    2.8320    1.6371 C   0  0  0  0  0  0  0  0  0  0  0  0
    5.5186    1.9474    0.3933 C   0  0  0  0  0  0  0  0  0  0  0  0
    4.3121    1.1074    0.3860 C   0  0  0  0  0  0  0  0  0  0  0  0
    3.8310    0.5381    1.5306 C   0  0  0  0  0  0  0  0  0  0  0  0
    2.7237   -0.2451    1.5844 C   0  0  0  0  0  0  0  0  0  0  0  0
    1.9821   -0.5244    0.4204 C   0  0  0  0  0  0  0  0  0  0  0  0
    2.4552    0.0405   -0.7312 C   0  0  0  0  0  0  0  0  0  0  0  0
    3.6081    0.8497   -0.7561 C   0  0  0  0  0  0  0  0  0  0  0  0
    0.8272   -1.3811    0.5461 C   0  0  0  0  0  0  0  0  0  0  0  0
    0.6176   -1.8887    1.7169 O   0  0  0  0  0  0  0  0  0  0  0  0
   -0.1019   -1.7430   -0.4165 N   0  0  0  0  0  0  0  0  0  0  0  0
   -1.1793   -2.6862    0.0676 C   0  0  0  0  0  0  0  0  0  0  0  0
   -2.4745   -1.9246   -0.0945 C   0  0  0  0  0  0  0  0  0  0  0  0
   -2.6027   -1.5119   -1.4891 N   0  0  0  0  0  0  0  0  0  0  0  0
   -1.5411   -1.8804   -2.3911 C   0  0  0  0  0  0  0  0  0  0  0  0
   -0.2336   -1.3695   -1.7855 C   0  0  0  0  0  0  0  0  0  0  0  0
   -3.7052   -0.7879   -1.9436 C   0  0  0  0  0  0  0  0  0  0  0  0
   -4.7921   -0.3936   -1.1467 C   0  0  0  0  0  0  0  0  0  0  0  0
   -5.6817    0.2924   -1.9089 C   0  0  0  0  0  0  0  0  0  0  0  0
   -5.1406    0.3077   -3.1286 O   0  0  0  0  0  0  0  0  0  0  0  0
   -4.0118   -0.3080   -3.1539 N   0  0  0  0  0  0  0  0  0  0  0  0
   -6.9459    0.8997   -1.5636 C   0  0  0  0  0  0  0  0  0  0  0  0
   -7.5990    1.5165   -2.5048 O   0  0  0  0  0  0  0  0  0  0  0  0
   -7.5193    0.8721   -0.2896 N   0  0  0  0  0  0  0  0  0  0  0  0
   -7.0331    0.2721    0.9121 C   0  0  0  0  0  0  0  0  0  0  0  0
   -8.0883    0.5089    1.9900 C   0  0  0  0  0  0  0  0  0  0  0  0
   -9.3479    0.8849    1.2145 C   0  0  0  0  0  0  0  0  0  0  0  0
   -8.8283    1.5380   -0.0415 C   0  0  0  0  0  0  0  0  0  0  0  0
    6.7647    1.1752    0.2465 C   0  0  0  0  0  0  0  0  0  0  0  0
    7.2449    0.9348   -1.0227 C   0  0  0  0  0  0  0  0  0  0  0  0
    8.3770    0.2363   -1.2423 N   0  0  0  0  0  0  0  0  0  0  0  0
    9.0843   -0.2557   -0.2082 C   0  0  0  0  0  0  0  0  0  0  0  0
   10.3462   -1.0349   -0.4456 C   0  0  0  0  0  0  0  0  0  0  0  0
    8.6199   -0.0236    1.0281 N   0  0  0  0  0  0  0  0  0  0  0  0
    7.4967    0.6672    1.2923 C   0  0  0  0  0  0  0  0  0  0  0  0
    6.2749    3.6324    1.5614 H   0  0  0  0  0  0  0  0  0  0  0  0
    4.4823    3.2371    1.7227 H   0  0  0  0  0  0  0  0  0  0  0  0
    5.6959    2.2309    2.5493 H   0  0  0  0  0  0  0  0  0  0  0  0
    5.4966    2.6856   -0.4644 H   0  0  0  0  0  0  0  0  0  0  0  0
    4.3505    0.7044    2.4882 H   0  0  0  0  0  0  0  0  0  0  0  0
    2.3844   -0.6717    2.5204 H   0  0  0  0  0  0  0  0  0  0  0  0
    1.9464   -0.1376   -1.6604 H   0  0  0  0  0  0  0  0  0  0  0  0
    3.8887    1.2421   -1.7194 H   0  0  0  0  0  0  0  0  0  0  0  0
   -1.1747   -3.5842   -0.5730 H   0  0  0  0  0  0  0  0  0  0  0  0
   -0.9999   -2.9564    1.1067 H   0  0  0  0  0  0  0  0  0  0  0  0
   -2.3607   -0.9836    0.5012 H   0  0  0  0  0  0  0  0  0  0  0  0
   -3.3468   -2.5089    0.2508 H   0  0  0  0  0  0  0  0  0  0  0  0
   -1.6987   -1.4204   -3.3868 H   0  0  0  0  0  0  0  0  0  0  0  0
   -1.4983   -2.9757   -2.4636 H   0  0  0  0  0  0  0  0  0  0  0  0
   -0.3154   -0.2410   -1.8285 H   0  0  0  0  0  0  0  0  0  0  0  0
    0.5478   -1.7576   -2.4529 H   0  0  0  0  0  0  0  0  0  0  0  0
   -4.8194   -0.6432   -0.1073 H   0  0  0  0  0  0  0  0  0  0  0  0
   -6.0886    0.7408    1.2528 H   0  0  0  0  0  0  0  0  0  0  0  0
   -6.9604   -0.8212    0.7192 H   0  0  0  0  0  0  0  0  0  0  0  0
   -8.2378   -0.4424    2.5624 H   0  0  0  0  0  0  0  0  0  0  0  0
   -7.7827    1.3006    2.6708 H   0  0  0  0  0  0  0  0  0  0  0  0
   -9.9975    1.5726    1.7877 H   0  0  0  0  0  0  0  0  0  0  0  0
   -9.9000   -0.0464    0.9567 H   0  0  0  0  0  0  0  0  0  0  0  0
   -8.6368    2.6092    0.1445 H   0  0  0  0  0  0  0  0  0  0  0  0
   -9.5042    1.3879   -0.8891 H   0  0  0  0  0  0  0  0  0  0  0  0
    6.7140    1.3096   -1.9102 H   0  0  0  0  0  0  0  0  0  0  0  0
   11.0940   -0.4377   -1.0038 H   0  0  0  0  0  0  0  0  0  0  0  0
   10.7134   -1.3629    0.5552 H   0  0  0  0  0  0  0  0  0  0  0  0
   10.0845   -1.9591   -1.0122 H   0  0  0  0  0  0  0  0  0  0  0  0
    7.1536    0.8342    2.2954 H   0  0  0  0  0  0  0  0  0  0  0  0
  1  2  1  0
  2  3  1  0
  3  4  2  0
  4  5  1  0
  5  6  2  0
  6  7  1  0
  7  8  2  0
  6  9  1  0
  9 10  2  0
  9 11  1  0
 11 12  1  0
 12 13  1  0
 13 14  1  0
 14 15  1  0
 15 16  1  0
 14 17  1  0
 17 18  1  0
 18 19  2  0
 19 20  1  0
 20 21  1  0
 19 22  1  0
 22 23  2  0
 22 24  1  0
 24 25  1  0
 25 26  1  0
 26 27  1  0
 27 28  1  0
  2 29  1  0
 29 30  2  0
 30 31  1  0
 31 32  2  0
 32 33  1  0
 32 34  1  0
 34 35  2  0
  8  3  1  0
 16 11  1  0
 21 17  2  0
 28 24  1  0
 35 29  1  0
  1 36  1  0
  1 37  1  0
  1 38  1  0
  2 39  1  0
  4 40  1  0
  5 41  1  0
  7 42  1  0
  8 43  1  0
 12 44  1  0
 12 45  1  0
 13 46  1  0
 13 47  1  0
 15 48  1  0
 15 49  1  0
 16 50  1  0
 16 51  1  0
 18 52  1  0
 25 53  1  0
 25 54  1  0
 26 55  1  0
 26 56  1  0
 27 57  1  0
 27 58  1  0
 28 59  1  0
 28 60  1  0
 30 61  1  0
 33 62  1  0
 33 63  1  0
 33 64  1  0
 35 65  1  0
M  END
$$$$
[H]c1c([H])c(C(=O)N2C([H])([H])C([H])([H])N(C(=O)C3([H])C([H])([H])C([H])([H])C([H])([H])C([H])([H])C3([H])[H])C([H])([H])C2([H])[H])c([H])c([H])c1OC([H])([H])c1c([H])c([H])c(C([H])(C([H])([H])[H])C([H])([H])[H])c(F)c1[H]
     RDKit          3D

 69 72  0  0  0  0  0  0  0  0999 V2000
   10.8106   -0.5159    0.4872 C   0  0  0  0  0  0  0  0  0  0  0  0
   10.1991    0.6746    1.2212 C   0  0  0  0  0  0  0  0  0  0  0  0
   10.7900    1.9798    0.7813 C   0  0  0  0  0  0  0  0  0  0  0  0
    8.7207    0.6310    1.0391 C   0  0  0  0  0  0  0  0  0  0  0  0
    8.1037   -0.3674    0.3118 C   0  0  0  0  0  0  0  0  0  0  0  0
    6.7192   -0.3767    0.1641 C   0  0  0  0  0  0  0  0  0  0  0  0
    5.9113    0.5944    0.7278 C   0  0  0  0  0  0  0  0  0  0  0  0
    4.4276    0.5569    0.5537 C   0  0  0  0  0  0  0  0  0  0  0  0
    4.0531   -0.5046   -0.3060 O   0  0  0  0  0  0  0  0  0  0  0  0
    2.7498   -0.7810   -0.6377 C   0  0  0  0  0  0  0  0  0  0  0  0
    2.4986   -1.8325   -1.4871 C   0  0  0  0  0  0  0  0  0  0  0  0
    1.2211   -2.1504   -1.8459 C   0  0  0  0  0  0  0  0  0  0  0  0
    0.0969   -1.4438   -1.3850 C   0  0  0  0  0  0  0  0  0  0  0  0
    0.3654   -0.4033   -0.5446 C   0  0  0  0  0  0  0  0  0  0  0  0
    1.6772   -0.0840   -0.1815 C   0  0  0  0  0  0  0  0  0  0  0  0
   -1.2112   -1.8201   -1.8291 C   0  0  0  0  0  0  0  0  0  0  0  0
   -1.2194   -2.7150   -2.7913 O   0  0  0  0  0  0  0  0  0  0  0  0
   -2.4884   -1.4189   -1.4323 N   0  0  0  0  0  0  0  0  0  0  0  0
   -3.6127   -2.0503   -2.2049 C   0  0  0  0  0  0  0  0  0  0  0  0
   -4.5637   -0.8797   -2.4663 C   0  0  0  0  0  0  0  0  0  0  0  0
   -5.1932   -0.6153   -1.1718 N   0  0  0  0  0  0  0  0  0  0  0  0
   -4.3466   -0.7016   -0.0122 C   0  0  0  0  0  0  0  0  0  0  0  0
   -2.8582   -0.5204   -0.3718 C   0  0  0  0  0  0  0  0  0  0  0  0
   -6.5622   -0.3227   -1.1436 C   0  0  0  0  0  0  0  0  0  0  0  0
   -7.2142   -0.3202   -2.2285 O   0  0  0  0  0  0  0  0  0  0  0  0
   -7.3085   -0.0105    0.0860 C   0  0  0  0  0  0  0  0  0  0  0  0
   -8.8153   -0.1940   -0.1471 C   0  0  0  0  0  0  0  0  0  0  0  0
   -9.4458   -0.0272    1.2349 C   0  0  0  0  0  0  0  0  0  0  0  0
   -9.1530    1.3050    1.8453 C   0  0  0  0  0  0  0  0  0  0  0  0
   -7.7098    1.7259    1.7524 C   0  0  0  0  0  0  0  0  0  0  0  0
   -7.1711    1.4961    0.3674 C   0  0  0  0  0  0  0  0  0  0  0  0
    6.5331    1.5864    1.4513 C   0  0  0  0  0  0  0  0  0  0  0  0
    7.9057    1.5931    1.5962 C   0  0  0  0  0  0  0  0  0  0  0  0
    8.5193    2.5741    2.3112 F   0  0  0  0  0  0  0  0  0  0  0  0
   11.9017   -0.5011    0.7131 H   0  0  0  0  0  0  0  0  0  0  0  0
   10.6808   -0.4410   -0.5990 H   0  0  0  0  0  0  0  0  0  0  0  0
   10.4192   -1.4381    0.9446 H   0  0  0  0  0  0  0  0  0  0  0  0
   10.4734    0.5268    2.3015 H   0  0  0  0  0  0  0  0  0  0  0  0
   11.1897    2.5581    1.6330 H   0  0  0  0  0  0  0  0  0  0  0  0
    9.9941    2.5848    0.3009 H   0  0  0  0  0  0  0  0  0  0  0  0
   11.6335    1.7703    0.0716 H   0  0  0  0  0  0  0  0  0  0  0  0
    8.7155   -1.1364   -0.1366 H   0  0  0  0  0  0  0  0  0  0  0  0
    6.2788   -1.1787   -0.4141 H   0  0  0  0  0  0  0  0  0  0  0  0
    4.0919    1.5350    0.1871 H   0  0  0  0  0  0  0  0  0  0  0  0
    3.9088    0.3679    1.5209 H   0  0  0  0  0  0  0  0  0  0  0  0
    3.3140   -2.4174   -1.8793 H   0  0  0  0  0  0  0  0  0  0  0  0
    1.0360   -2.9883   -2.5195 H   0  0  0  0  0  0  0  0  0  0  0  0
   -0.3967    0.2288   -0.1388 H   0  0  0  0  0  0  0  0  0  0  0  0
    1.8384    0.7383    0.4778 H   0  0  0  0  0  0  0  0  0  0  0  0
   -4.1029   -2.7137   -1.4865 H   0  0  0  0  0  0  0  0  0  0  0  0
   -3.2523   -2.4984   -3.1275 H   0  0  0  0  0  0  0  0  0  0  0  0
   -5.3157   -1.1187   -3.2205 H   0  0  0  0  0  0  0  0  0  0  0  0
   -3.9922    0.0512   -2.7002 H   0  0  0  0  0  0  0  0  0  0  0  0
   -4.5674    0.1432    0.6645 H   0  0  0  0  0  0  0  0  0  0  0  0
   -4.4368   -1.6858    0.5048 H   0  0  0  0  0  0  0  0  0  0  0  0
   -2.6525    0.5201   -0.6346 H   0  0  0  0  0  0  0  0  0  0  0  0
   -2.2746   -0.8021    0.5303 H   0  0  0  0  0  0  0  0  0  0  0  0
   -7.0397   -0.5759    0.9707 H   0  0  0  0  0  0  0  0  0  0  0  0
   -9.1846    0.6239   -0.7695 H   0  0  0  0  0  0  0  0  0  0  0  0
   -9.0459   -1.2000   -0.5014 H   0  0  0  0  0  0  0  0  0  0  0  0
  -10.5433   -0.1317    1.1412 H   0  0  0  0  0  0  0  0  0  0  0  0
   -9.0564   -0.8539    1.8710 H   0  0  0  0  0  0  0  0  0  0  0  0
   -9.8081    2.0971    1.4369 H   0  0  0  0  0  0  0  0  0  0  0  0
   -9.3761    1.2183    2.9417 H   0  0  0  0  0  0  0  0  0  0  0  0
   -7.0531    1.2200    2.4779 H   0  0  0  0  0  0  0  0  0  0  0  0
   -7.7130    2.8452    1.9054 H   0  0  0  0  0  0  0  0  0  0  0  0
   -7.8558    1.9915   -0.3819 H   0  0  0  0  0  0  0  0  0  0  0  0
   -6.1458    1.8320    0.2755 H   0  0  0  0  0  0  0  0  0  0  0  0
    5.9085    2.3489    1.8944 H   0  0  0  0  0  0  0  0  0  0  0  0
  1  2  1  0
  2  3  1  0
  2  4  1  0
  4  5  2  0
  5  6  1  0
  6  7  2  0
  7  8  1  0
  8  9  1  0
  9 10  1  0
 10 11  2  0
 11 12  1  0
 12 13  2  0
 13 14  1  0
 14 15  2  0
 13 16  1  0
 16 17  2  0
 16 18  1  0
 18 19  1  0
 19 20  1  0
 20 21  1  0
 21 22  1  0
 22 23  1  0
 21 24  1  0
 24 25  2  0
 24 26  1  0
 26 27  1  0
 27 28  1  0
 28 29  1  0
 29 30  1  0
 30 31  1  0
  7 32  1  0
 32 33  2  0
 33 34  1  0
 33  4  1  0
 15 10  1  0
 23 18  1  0
 31 26  1  0
  1 35  1  0
  1 36  1  0
  1 37  1  0
  2 38  1  0
  3 39  1  0
  3 40  1  0
  3 41  1  0
  5 42  1  0
  6 43  1  0
  8 44  1  0
  8 45  1  0
 11 46  1  0
 12 47  1  0
 14 48  1  0
 15 49  1  0
 19 50  1  0
 19 51  1  0
 20 52  1  0
 20 53  1  0
 22 54  1  0
 22 55  1  0
 23 56  1  0
 23 57  1  0
 26 58  1  0
 27 59  1  0
 27 60  1  0
 28 61  1  0
 28 62  1  0
 29 63  1  0
 29 64  1  0
 30 65  1  0
 30 66  1  0
 31 67  1  0
 31 68  1  0
 32 69  1  0
M  END
$$$$
[H]ON([H])C(=O)/C([H])=C(\[H])c1c([H])c([H])c(/C(=N/OC([H])([H])[H])c2c([H])c([H])c(C([H])([H])N([H])C([H])([H])C([H])([H])C([H])([H])C([H])([H])[H])c([H])c2[H])c([H])c1[H]
     RDKit          3D

 55 56  0  0  0  0  0  0  0  0999 V2000
   -6.3655    2.5541    2.1360 C   0  0  0  0  0  0  0  0  0  0  0  0
   -6.0246    1.5934    1.0246 C   0  0  0  0  0  0  0  0  0  0  0  0
   -5.9557    2.2950   -0.3233 C   0  0  0  0  0  0  0  0  0  0  0  0
   -5.6096    1.2385   -1.3497 C   0  0  0  0  0  0  0  0  0  0  0  0
   -4.3345    0.6704   -0.9803 N   0  0  0  0  0  0  0  0  0  0  0  0
   -3.9086   -0.3618   -1.9087 C   0  0  0  0  0  0  0  0  0  0  0  0
   -2.6089   -0.8967   -1.4769 C   0  0  0  0  0  0  0  0  0  0  0  0
   -1.4379   -0.2967   -1.9549 C   0  0  0  0  0  0  0  0  0  0  0  0
   -0.2197   -0.7824   -1.5635 C   0  0  0  0  0  0  0  0  0  0  0  0
   -0.1214   -1.8470   -0.7088 C   0  0  0  0  0  0  0  0  0  0  0  0
   -1.2919   -2.4316   -0.2426 C   0  0  0  0  0  0  0  0  0  0  0  0
   -2.5245   -1.9631   -0.6221 C   0  0  0  0  0  0  0  0  0  0  0  0
    1.1737   -2.2657   -0.2550 C   0  0  0  0  0  0  0  0  0  0  0  0
    2.2787   -1.3071   -0.0822 C   0  0  0  0  0  0  0  0  0  0  0  0
    3.5854   -1.8249    0.0348 C   0  0  0  0  0  0  0  0  0  0  0  0
    4.6581   -1.0093    0.2756 C   0  0  0  0  0  0  0  0  0  0  0  0
    4.5429    0.3586    0.4196 C   0  0  0  0  0  0  0  0  0  0  0  0
    5.6974    1.2111    0.6749 C   0  0  0  0  0  0  0  0  0  0  0  0
    5.6795    2.5028    0.8230 C   0  0  0  0  0  0  0  0  0  0  0  0
    6.8822    3.2625    1.0740 C   0  0  0  0  0  0  0  0  0  0  0  0
    6.7938    4.5065    1.2070 O   0  0  0  0  0  0  0  0  0  0  0  0
    8.1367    2.6465    1.1716 N   0  0  0  0  0  0  0  0  0  0  0  0
    9.2390    3.4136    1.4099 O   0  0  0  0  0  0  0  0  0  0  0  0
    3.2787    0.8735    0.3091 C   0  0  0  0  0  0  0  0  0  0  0  0
    2.1656    0.0358    0.0612 C   0  0  0  0  0  0  0  0  0  0  0  0
    1.3934   -3.5057    0.0230 N   0  0  0  0  0  0  0  0  0  0  0  0
    0.4971   -4.4881   -0.0764 O   0  0  0  0  0  0  0  0  0  0  0  0
    0.9138   -5.7832   -0.4619 C   0  0  0  0  0  0  0  0  0  0  0  0
   -5.6717    2.4857    2.9821 H   0  0  0  0  0  0  0  0  0  0  0  0
   -7.4020    2.3682    2.5392 H   0  0  0  0  0  0  0  0  0  0  0  0
   -6.3407    3.5892    1.7318 H   0  0  0  0  0  0  0  0  0  0  0  0
   -5.0386    1.1554    1.2685 H   0  0  0  0  0  0  0  0  0  0  0  0
   -6.7447    0.7738    0.9161 H   0  0  0  0  0  0  0  0  0  0  0  0
   -5.1089    3.0336   -0.3414 H   0  0  0  0  0  0  0  0  0  0  0  0
   -6.8726    2.8361   -0.5594 H   0  0  0  0  0  0  0  0  0  0  0  0
   -5.5760    1.6701   -2.3793 H   0  0  0  0  0  0  0  0  0  0  0  0
   -6.3955    0.4566   -1.2952 H   0  0  0  0  0  0  0  0  0  0  0  0
   -3.6043    1.3841   -0.8771 H   0  0  0  0  0  0  0  0  0  0  0  0
   -4.6481   -1.1711   -1.8496 H   0  0  0  0  0  0  0  0  0  0  0  0
   -3.8491    0.0869   -2.9092 H   0  0  0  0  0  0  0  0  0  0  0  0
   -1.5320    0.5534   -2.6356 H   0  0  0  0  0  0  0  0  0  0  0  0
    0.6351   -0.2765   -2.0157 H   0  0  0  0  0  0  0  0  0  0  0  0
   -1.2705   -3.2739    0.4703 H   0  0  0  0  0  0  0  0  0  0  0  0
   -3.4035   -2.4458   -0.2383 H   0  0  0  0  0  0  0  0  0  0  0  0
    3.6830   -2.8950   -0.0776 H   0  0  0  0  0  0  0  0  0  0  0  0
    5.6721   -1.4354    0.3636 H   0  0  0  0  0  0  0  0  0  0  0  0
    6.6614    0.6816    0.7434 H   0  0  0  0  0  0  0  0  0  0  0  0
    4.7117    3.0062    0.7510 H   0  0  0  0  0  0  0  0  0  0  0  0
    8.3421    1.6304    1.0810 H   0  0  0  0  0  0  0  0  0  0  0  0
    9.9005    3.3078    0.6893 H   0  0  0  0  0  0  0  0  0  0  0  0
    3.0766    1.9366    0.4058 H   0  0  0  0  0  0  0  0  0  0  0  0
    1.1819    0.5155    0.0312 H   0  0  0  0  0  0  0  0  0  0  0  0
    0.2789   -6.5687    0.0065 H   0  0  0  0  0  0  0  0  0  0  0  0
    0.8441   -5.8900   -1.5601 H   0  0  0  0  0  0  0  0  0  0  0  0
    1.9576   -5.9140   -0.1472 H   0  0  0  0  0  0  0  0  0  0  0  0
  1  2  1  0
  2  3  1  0
  3  4  1  0
  4  5  1  0
  5  6  1  0
  6  7  1  0
  7  8  2  0
  8  9  1  0
  9 10  2  0
 10 11  1  0
 11 12  2  0
 10 13  1  0
 13 14  1  0
 14 15  2  0
 15 16  1  0
 16 17  2  0
 17 18  1  0
 18 19  2  0
 19 20  1  0
 20 21  2  0
 20 22  1  0
 22 23  1  0
 17 24  1  0
 24 25  2  0
 13 26  2  0
 26 27  1  0
 27 28  1  0
 12  7  1  0
 25 14  1  0
  1 29  1  0
  1 30  1  0
  1 31  1  0
  2 32  1  0
  2 33  1  0
  3 34  1  0
  3 35  1  0
  4 36  1  0
  4 37  1  0
  5 38  1  0
  6 39  1  0
  6 40  1  0
  8 41  1  0
  9 42  1  0
 11 43  1  0
 12 44  1  0
 15 45  1  0
 16 46  1  0
 18 47  1  0
 19 48  1  0
 22 49  1  0
 23 50  1  0
 24 51  1  0
 25 52  1  0
 28 53  1  0
 28 54  1  0
 28 55  1  0
M  END
$$$$
[H]c1c([H])c(N2C([H])([H])C([H])([H])C([H])(c3c([H])n([H])c4nc(-c5c([H])c([H])c(C#N)c([H])c5[H])n([H])c(=O)c34)C([H])([H])C2([H])[H])c([H])c(C([H])([H])N2C([H])([H])C([H])([H])C([H])([H])C2([H])[H])c1[H]
     RDKit          3D

 66 71  0  0  0  0  0  0  0  0999 V2000
   12.4049   -0.7137    3.3472 N   0  0  0  0  0  0  0  0  0  0  0  0
   11.3431   -0.6426    2.8954 C   0  0  0  0  0  0  0  0  0  0  0  0
   10.0363   -0.5607    2.3134 C   0  0  0  0  0  0  0  0  0  0  0  0
    9.6091    0.6495    1.8189 C   0  0  0  0  0  0  0  0  0  0  0  0
    8.3547    0.7068    1.2653 C   0  0  0  0  0  0  0  0  0  0  0  0
    7.4882   -0.3657    1.1687 C   0  0  0  0  0  0  0  0  0  0  0  0
    7.9216   -1.5645    1.6628 C   0  0  0  0  0  0  0  0  0  0  0  0
    9.2024   -1.6563    2.2367 C   0  0  0  0  0  0  0  0  0  0  0  0
    6.1606   -0.1980    0.5529 C   0  0  0  0  0  0  0  0  0  0  0  0
    5.7764    1.0040    0.0784 N   0  0  0  0  0  0  0  0  0  0  0  0
    4.5830    1.2361   -0.4970 C   0  0  0  0  0  0  0  0  0  0  0  0
    3.9860    2.3099   -1.0411 N   0  0  0  0  0  0  0  0  0  0  0  0
    2.7607    2.0210   -1.5023 C   0  0  0  0  0  0  0  0  0  0  0  0
    2.5302    0.6714   -1.2477 C   0  0  0  0  0  0  0  0  0  0  0  0
    1.2900   -0.0906   -1.5513 C   0  0  0  0  0  0  0  0  0  0  0  0
    0.4669    0.6879   -2.5725 C   0  0  0  0  0  0  0  0  0  0  0  0
   -0.6475    1.4888   -1.9593 C   0  0  0  0  0  0  0  0  0  0  0  0
   -1.5833    0.5608   -1.3662 N   0  0  0  0  0  0  0  0  0  0  0  0
   -1.0104   -0.5999   -0.7264 C   0  0  0  0  0  0  0  0  0  0  0  0
    0.4038   -0.1796   -0.2993 C   0  0  0  0  0  0  0  0  0  0  0  0
   -2.9737    0.8150   -1.4304 C   0  0  0  0  0  0  0  0  0  0  0  0
   -3.5415    1.9714   -1.9185 C   0  0  0  0  0  0  0  0  0  0  0  0
   -4.8958    2.1906   -1.9790 C   0  0  0  0  0  0  0  0  0  0  0  0
   -5.7438    1.2095   -1.5304 C   0  0  0  0  0  0  0  0  0  0  0  0
   -5.2168    0.0393   -1.0348 C   0  0  0  0  0  0  0  0  0  0  0  0
   -6.1580   -1.0351   -0.5431 C   0  0  0  0  0  0  0  0  0  0  0  0
   -6.4918   -0.8119    0.8541 N   0  0  0  0  0  0  0  0  0  0  0  0
   -7.3862   -1.8794    1.2657 C   0  0  0  0  0  0  0  0  0  0  0  0
   -8.2603   -1.3172    2.3625 C   0  0  0  0  0  0  0  0  0  0  0  0
   -8.0027    0.1651    2.3556 C   0  0  0  0  0  0  0  0  0  0  0  0
   -7.2802    0.3945    1.0243 C   0  0  0  0  0  0  0  0  0  0  0  0
   -3.8568   -0.1700   -0.9790 C   0  0  0  0  0  0  0  0  0  0  0  0
    3.6635    0.1984   -0.6276 C   0  0  0  0  0  0  0  0  0  0  0  0
    4.0698   -1.0216   -0.1398 C   0  0  0  0  0  0  0  0  0  0  0  0
    3.2666   -1.9950   -0.2402 O   0  0  0  0  0  0  0  0  0  0  0  0
    5.2953   -1.2127    0.4391 N   0  0  0  0  0  0  0  0  0  0  0  0
   10.2600    1.5256    1.8732 H   0  0  0  0  0  0  0  0  0  0  0  0
    7.9848    1.6474    0.8645 H   0  0  0  0  0  0  0  0  0  0  0  0
    7.2899   -2.4240    1.6122 H   0  0  0  0  0  0  0  0  0  0  0  0
    9.5550   -2.5989    2.6300 H   0  0  0  0  0  0  0  0  0  0  0  0
    4.4568    3.2472   -1.0814 H   0  0  0  0  0  0  0  0  0  0  0  0
    2.0515    2.7022   -1.9917 H   0  0  0  0  0  0  0  0  0  0  0  0
    1.4414   -1.0886   -1.9407 H   0  0  0  0  0  0  0  0  0  0  0  0
   -0.0437   -0.0437   -3.2651 H   0  0  0  0  0  0  0  0  0  0  0  0
    1.0877    1.3731   -3.1826 H   0  0  0  0  0  0  0  0  0  0  0  0
   -1.0983    2.0723   -2.7936 H   0  0  0  0  0  0  0  0  0  0  0  0
   -0.3258    2.1891   -1.1662 H   0  0  0  0  0  0  0  0  0  0  0  0
   -0.8588   -1.3684   -1.5114 H   0  0  0  0  0  0  0  0  0  0  0  0
   -1.5648   -0.9706    0.1427 H   0  0  0  0  0  0  0  0  0  0  0  0
    0.7525   -0.9379    0.4215 H   0  0  0  0  0  0  0  0  0  0  0  0
    0.3080    0.8277    0.1829 H   0  0  0  0  0  0  0  0  0  0  0  0
   -2.8920    2.7700   -2.2785 H   0  0  0  0  0  0  0  0  0  0  0  0
   -5.2609    3.1398   -2.3827 H   0  0  0  0  0  0  0  0  0  0  0  0
   -6.8180    1.3653   -1.5713 H   0  0  0  0  0  0  0  0  0  0  0  0
   -5.6249   -1.9893   -0.6200 H   0  0  0  0  0  0  0  0  0  0  0  0
   -7.0402   -1.0589   -1.1989 H   0  0  0  0  0  0  0  0  0  0  0  0
   -6.8229   -2.7355    1.7085 H   0  0  0  0  0  0  0  0  0  0  0  0
   -8.0024   -2.2099    0.4090 H   0  0  0  0  0  0  0  0  0  0  0  0
   -8.0391   -1.7577    3.3590 H   0  0  0  0  0  0  0  0  0  0  0  0
   -9.3407   -1.4639    2.1144 H   0  0  0  0  0  0  0  0  0  0  0  0
   -7.3927    0.4781    3.2132 H   0  0  0  0  0  0  0  0  0  0  0  0
   -8.9604    0.7572    2.3818 H   0  0  0  0  0  0  0  0  0  0  0  0
   -6.6672    1.3050    1.1611 H   0  0  0  0  0  0  0  0  0  0  0  0
   -8.0765    0.4926    0.2685 H   0  0  0  0  0  0  0  0  0  0  0  0
   -3.4373   -1.0853   -0.5936 H   0  0  0  0  0  0  0  0  0  0  0  0
    5.5146   -2.1711    0.7797 H   0  0  0  0  0  0  0  0  0  0  0  0
  1  2  3  0
  2  3  1  0
  3  4  2  0
  4  5  1  0
  5  6  2  0
  6  7  1  0
  7  8  2  0
  6  9  1  0
  9 10  2  0
 10 11  1  0
 11 12  1  0
 12 13  1  0
 13 14  2  0
 14 15  1  0
 15 16  1  0
 16 17  1  0
 17 18  1  0
 18 19  1  0
 19 20  1  0
 18 21  1  0
 21 22  2  0
 22 23  1  0
 23 24  2  0
 24 25  1  0
 25 26  1  0
 26 27  1  0
 27 28  1  0
 28 29  1  0
 29 30  1  0
 30 31  1  0
 25 32  2  0
 14 33  1  0
 33 34  1  0
 34 35  2  0
 34 36  1  0
  8  3  1  0
 36  9  1  0
 33 11  2  0
 20 15  1  0
 32 21  1  0
 31 27  1  0
  4 37  1  0
  5 38  1  0
  7 39  1  0
  8 40  1  0
 12 41  1  0
 13 42  1  0
 15 43  1  0
 16 44  1  0
 16 45  1  0
 17 46  1  0
 17 47  1  0
 19 48  1  0
 19 49  1  0
 20 50  1  0
 20 51  1  0
 22 52  1  0
 23 53  1  0
 24 54  1  0
 26 55  1  0
 26 56  1  0
 28 57  1  0
 28 58  1  0
 29 59  1  0
 29 60  1  0
 30 61  1  0
 30 62  1  0
 31 63  1  0
 31 64  1  0
 32 65  1  0
 36 66  1  0
M  END
$$$$
[H]c1c(C(=O)N([H])C([H])([H])[C@]([H])(C(=O)N([H])[H])C2([H])C([H])([H])[C@@]3([H])N(C([H])([H])[H])[C@@]([H])(C([H])([H])C3([H])[H])C2([H])[H])oc(-c2c([H])c([H])c(F)c([H])c2[H])c1[H]
     RDKit          2D

 55 58  0  0  0  0  0  0  0  0999 V2000
    2.7760    0.0000    0.0000 C   0  0  0  0  0  0  0  0  0  0  0  0
    1.2760    0.0000    0.0000 N   0  0  0  0  0  0  0  0  0  0  0  0
    0.3943    1.2135    0.0000 C   0  0  0  0  0  0  0  0  0  0  0  0
   -1.0323    0.7500    0.0000 C   0  0  0  0  0  0  0  0  0  0  0  0
   -1.0323   -0.7500    0.0000 C   0  0  0  0  0  0  0  0  0  0  0  0
    0.3943   -1.2135    0.0000 C   0  0  0  0  0  0  0  0  0  0  0  0
    1.8943   -1.3846    0.0000 C   0  0  0  0  0  0  0  0  0  0  0  0
    2.6443   -0.0855    0.0000 C   0  0  0  0  0  0  0  0  0  0  0  0
    1.8943    1.2135    0.0000 C   0  0  0  0  0  0  0  0  0  0  0  0
    3.7934    0.8787    0.0000 C   0  0  0  0  0  0  0  0  0  0  0  0
    2.8292    2.0277    0.0000 C   0  0  0  0  0  0  0  0  0  0  0  0
    1.8650    3.1768    0.0000 N   0  0  0  0  0  0  0  0  0  0  0  0
    2.3780    4.5863    0.0000 C   0  0  0  0  0  0  0  0  0  0  0  0
    3.8552    4.8468    0.0000 O   0  0  0  0  0  0  0  0  0  0  0  0
    1.4139    5.7354    0.0000 C   0  0  0  0  0  0  0  0  0  0  0  0
   -0.0825    5.6308    0.0000 C   0  0  0  0  0  0  0  0  0  0  0  0
   -0.6444    7.0215    0.0000 C   0  0  0  0  0  0  0  0  0  0  0  0
    0.5047    7.9857    0.0000 C   0  0  0  0  0  0  0  0  0  0  0  0
    1.7767    7.1909    0.0000 O   0  0  0  0  0  0  0  0  0  0  0  0
    0.4000    9.4821    0.0000 C   0  0  0  0  0  0  0  0  0  0  0  0
    1.6436   10.3209    0.0000 C   0  0  0  0  0  0  0  0  0  0  0  0
    1.5389   11.8172    0.0000 C   0  0  0  0  0  0  0  0  0  0  0  0
    0.1908   12.4748    0.0000 C   0  0  0  0  0  0  0  0  0  0  0  0
    0.0861   13.9711    0.0000 F   0  0  0  0  0  0  0  0  0  0  0  0
   -1.0528   11.6360    0.0000 C   0  0  0  0  0  0  0  0  0  0  0  0
   -0.9482   10.1396    0.0000 C   0  0  0  0  0  0  0  0  0  0  0  0
    4.9424    1.8429    0.0000 C   0  0  0  0  0  0  0  0  0  0  0  0
    6.3520    1.3298    0.0000 N   0  0  0  0  0  0  0  0  0  0  0  0
    4.8640    3.3408    0.0000 O   0  0  0  0  0  0  0  0  0  0  0  0
    4.2648   -0.1828    0.0000 H   0  0  0  0  0  0  0  0  0  0  0  0
    2.9588   -1.4888    0.0000 H   0  0  0  0  0  0  0  0  0  0  0  0
    2.5931    1.4888    0.0000 H   0  0  0  0  0  0  0  0  0  0  0  0
    0.4989    2.7099    0.0000 H   0  0  0  0  0  0  0  0  0  0  0  0
   -2.5241    0.5932    0.0000 H   0  0  0  0  0  0  0  0  0  0  0  0
   -1.3442    2.2172    0.0000 H   0  0  0  0  0  0  0  0  0  0  0  0
   -1.3442   -2.2172    0.0000 H   0  0  0  0  0  0  0  0  0  0  0  0
   -2.5241   -0.5932    0.0000 H   0  0  0  0  0  0  0  0  0  0  0  0
    0.6805   -2.6860    0.0000 H   0  0  0  0  0  0  0  0  0  0  0  0
    3.2308   -2.0656    0.0000 H   0  0  0  0  0  0  0  0  0  0  0  0
    1.8158   -2.8825    0.0000 H   0  0  0  0  0  0  0  0  0  0  0  0
    3.7934   -1.0497    0.0000 H   0  0  0  0  0  0  0  0  0  0  0  0
    1.4557    2.6480    0.0000 H   0  0  0  0  0  0  0  0  0  0  0  0
    3.0263    2.1977    0.0000 H   0  0  0  0  0  0  0  0  0  0  0  0
    4.8904   -0.1443    0.0000 H   0  0  0  0  0  0  0  0  0  0  0  0
    3.8522    3.1248    0.0000 H   0  0  0  0  0  0  0  0  0  0  0  0
    1.4810    1.3703    0.0000 H   0  0  0  0  0  0  0  0  0  0  0  0
    0.3671    3.0983    0.0000 H   0  0  0  0  0  0  0  0  0  0  0  0
   -0.8774    4.3587    0.0000 H   0  0  0  0  0  0  0  0  0  0  0  0
   -2.0998    7.3844    0.0000 H   0  0  0  0  0  0  0  0  0  0  0  0
    2.9918    9.6633    0.0000 H   0  0  0  0  0  0  0  0  0  0  0  0
    2.7825   12.6560    0.0000 H   0  0  0  0  0  0  0  0  0  0  0  0
   -2.4010   12.2935    0.0000 H   0  0  0  0  0  0  0  0  0  0  0  0
   -2.1917    9.3008    0.0000 H   0  0  0  0  0  0  0  0  0  0  0  0
    7.5010    2.2940    0.0000 H   0  0  0  0  0  0  0  0  0  0  0  0
    6.6124   -0.1474    0.0000 H   0  0  0  0  0  0  0  0  0  0  0  0
  1  2  1  0
  2  3  1  0
  3  4  1  0
  4  5  1  0
  5  6  1  0
  6  7  1  0
  7  8  1  0
  8  9  1  0
  8 10  1  0
 10 11  1  0
 11 12  1  0
 12 13  1  0
 13 14  2  0
 13 15  1  0
 15 16  2  0
 16 17  1  0
 17 18  2  0
 18 19  1  0
 18 20  1  0
 20 21  2  0
 21 22  1  0
 22 23  2  0
 23 24  1  0
 23 25  1  0
 25 26  2  0
 10 27  1  0
 27 28  1  0
 27 29  2  0
  6  2  1  0
 19 15  1  0
 26 20  1  0
  9  3  1  0
  1 30  1  0
  1 31  1  0
  1 32  1  0
  3 33  1  6
  4 34  1  0
  4 35  1  0
  5 36  1  0
  5 37  1  0
  6 38  1  1
  7 39  1  0
  7 40  1  0
  8 41  1  0
  9 42  1  0
  9 43  1  0
 10 44  1  1
 11 45  1  0
 11 46  1  0
 12 47  1  0
 16 48  1  0
 17 49  1  0
 21 50  1  0
 22 51  1  0
 25 52  1  0
 26 53  1  0
 28 54  1  0
 28 55  1  0
M  END
$$$$
[H]C([H])=C([H])c1c([H])c([H])c2c(c1[H])C(N([H])C(=O)c1c([H])c([H])c([H])c([H])c1[H])(C([H])([H])N(C([H])([H])[H])C([H])([H])[H])C(=O)N2[H]
     RDKit          3D

 46 48  0  0  0  0  0  0  0  0999 V2000
    1.3015    3.0275    0.5716 C   0  0  0  0  0  0  0  0  0  0  0  0
   -0.0782    2.9826    0.8918 N   0  0  0  0  0  0  0  0  0  0  0  0
   -0.6665    4.2642    0.4695 C   0  0  0  0  0  0  0  0  0  0  0  0
   -0.8749    1.9521    0.3445 C   0  0  0  0  0  0  0  0  0  0  0  0
   -0.5724    0.5768    0.8956 C   0  0  0  0  0  0  0  0  0  0  0  0
    0.7513    0.1016    0.6387 N   0  0  0  0  0  0  0  0  0  0  0  0
    1.3893   -0.1107   -0.5993 C   0  0  0  0  0  0  0  0  0  0  0  0
    0.7993    0.1308   -1.6716 O   0  0  0  0  0  0  0  0  0  0  0  0
    2.7764   -0.6243   -0.7098 C   0  0  0  0  0  0  0  0  0  0  0  0
    3.4632   -1.1651    0.3330 C   0  0  0  0  0  0  0  0  0  0  0  0
    4.7513   -1.6252    0.1906 C   0  0  0  0  0  0  0  0  0  0  0  0
    5.3741   -1.5476   -1.0148 C   0  0  0  0  0  0  0  0  0  0  0  0
    4.6927   -1.0007   -2.0894 C   0  0  0  0  0  0  0  0  0  0  0  0
    3.4053   -0.5386   -1.9551 C   0  0  0  0  0  0  0  0  0  0  0  0
   -0.6418    0.6800    2.4080 C   0  0  0  0  0  0  0  0  0  0  0  0
   -0.0486    1.5596    3.1040 O   0  0  0  0  0  0  0  0  0  0  0  0
   -1.4611   -0.3511    2.8679 N   0  0  0  0  0  0  0  0  0  0  0  0
   -2.0624   -0.9774    1.7358 C   0  0  0  0  0  0  0  0  0  0  0  0
   -3.0296   -1.9827    1.6457 C   0  0  0  0  0  0  0  0  0  0  0  0
   -3.5567   -2.3703    0.4330 C   0  0  0  0  0  0  0  0  0  0  0  0
   -3.1578   -1.7870   -0.7490 C   0  0  0  0  0  0  0  0  0  0  0  0
   -3.7012   -2.1753   -2.0436 C   0  0  0  0  0  0  0  0  0  0  0  0
   -4.6132   -3.0986   -2.2349 C   0  0  0  0  0  0  0  0  0  0  0  0
   -2.1989   -0.7948   -0.6460 C   0  0  0  0  0  0  0  0  0  0  0  0
   -1.6492   -0.3891    0.5752 C   0  0  0  0  0  0  0  0  0  0  0  0
    1.7486    4.0482    0.7946 H   0  0  0  0  0  0  0  0  0  0  0  0
    1.4561    2.9523   -0.5442 H   0  0  0  0  0  0  0  0  0  0  0  0
    1.9482    2.3429    1.1519 H   0  0  0  0  0  0  0  0  0  0  0  0
   -1.7347    4.1988    0.7062 H   0  0  0  0  0  0  0  0  0  0  0  0
   -0.5544    4.2773   -0.6400 H   0  0  0  0  0  0  0  0  0  0  0  0
   -0.1454    5.1159    0.9244 H   0  0  0  0  0  0  0  0  0  0  0  0
   -0.7294    1.8453   -0.7772 H   0  0  0  0  0  0  0  0  0  0  0  0
   -1.9694    2.1154    0.4669 H   0  0  0  0  0  0  0  0  0  0  0  0
    1.3556   -0.1283    1.4916 H   0  0  0  0  0  0  0  0  0  0  0  0
    2.9915   -1.2398    1.2949 H   0  0  0  0  0  0  0  0  0  0  0  0
    5.3065   -2.0616    1.0289 H   0  0  0  0  0  0  0  0  0  0  0  0
    6.3828   -1.8985   -1.1615 H   0  0  0  0  0  0  0  0  0  0  0  0
    5.2178   -0.9498   -3.0521 H   0  0  0  0  0  0  0  0  0  0  0  0
    2.8714   -0.1080   -2.8042 H   0  0  0  0  0  0  0  0  0  0  0  0
   -1.6478   -0.6645    3.8518 H   0  0  0  0  0  0  0  0  0  0  0  0
   -3.3470   -2.4472    2.5839 H   0  0  0  0  0  0  0  0  0  0  0  0
   -4.3040   -3.1527    0.4021 H   0  0  0  0  0  0  0  0  0  0  0  0
   -3.3228   -1.6618   -2.9160 H   0  0  0  0  0  0  0  0  0  0  0  0
   -5.0263   -3.6426   -1.4039 H   0  0  0  0  0  0  0  0  0  0  0  0
   -4.9834   -3.3505   -3.2078 H   0  0  0  0  0  0  0  0  0  0  0  0
   -1.9054   -0.3273   -1.5815 H   0  0  0  0  0  0  0  0  0  0  0  0
  1  2  1  0
  2  3  1  0
  2  4  1  0
  4  5  1  0
  5  6  1  0
  6  7  1  0
  7  8  2  0
  7  9  1  0
  9 10  2  0
 10 11  1  0
 11 12  2  0
 12 13  1  0
 13 14  2  0
  5 15  1  0
 15 16  2  0
 15 17  1  0
 17 18  1  0
 18 19  2  0
 19 20  1  0
 20 21  2  0
 21 22  1  0
 22 23  2  3
 21 24  1  0
 24 25  2  0
 25  5  1  0
 14  9  1  0
 25 18  1  0
  1 26  1  0
  1 27  1  0
  1 28  1  0
  3 29  1  0
  3 30  1  0
  3 31  1  0
  4 32  1  0
  4 33  1  0
  6 34  1  0
 10 35  1  0
 11 36  1  0
 12 37  1  0
 13 38  1  0
 14 39  1  0
 17 40  1  0
 19 41  1  0
 20 42  1  0
 22 43  1  0
 23 44  1  0
 23 45  1  0
 24 46  1  0
M  END
$$$$
[H]c1c([H])c([H])c(C(=O)N([H])[C@]2([H])C([H])([H])[C@@]2([H])c2nnn(C([H])([H])c3c([H])c([H])c([H])c([H])c3[H])c2[H])c([H])c1[H]
     RDKit          3D

 42 45  0  0  0  0  0  0  0  0999 V2000
    3.4768    0.0335    2.1566 O   0  0  0  0  0  0  0  0  0  0  0  0
    3.7338   -0.1340    0.9448 C   0  0  0  0  0  0  0  0  0  0  0  0
    2.8081   -0.8173    0.1356 N   0  0  0  0  0  0  0  0  0  0  0  0
    1.5524   -1.3433    0.6498 C   0  0  2  0  0  0  0  0  0  0  0  0
    0.8494   -2.4407   -0.0087 C   0  0  0  0  0  0  0  0  0  0  0  0
    0.3686   -1.0560   -0.2835 C   0  0  1  0  0  0  0  0  0  0  0  0
   -0.8544   -0.5549    0.4036 C   0  0  0  0  0  0  0  0  0  0  0  0
   -1.7503    0.3831   -0.0589 C   0  0  0  0  0  0  0  0  0  0  0  0
   -2.7013    0.5367    0.8746 N   0  0  0  0  0  0  0  0  0  0  0  0
   -3.8656    1.4302    0.8242 C   0  0  0  0  0  0  0  0  0  0  0  0
   -4.9577    0.6591    0.2035 C   0  0  0  0  0  0  0  0  0  0  0  0
   -5.7998   -0.0772    0.9879 C   0  0  0  0  0  0  0  0  0  0  0  0
   -6.8240   -0.7969    0.3750 C   0  0  0  0  0  0  0  0  0  0  0  0
   -6.9935   -0.7738   -0.9922 C   0  0  0  0  0  0  0  0  0  0  0  0
   -6.1334   -0.0269   -1.7471 C   0  0  0  0  0  0  0  0  0  0  0  0
   -5.1149    0.6905   -1.1536 C   0  0  0  0  0  0  0  0  0  0  0  0
   -2.4142   -0.2706    1.8797 N   0  0  0  0  0  0  0  0  0  0  0  0
   -1.3039   -0.9359    1.6119 N   0  0  0  0  0  0  0  0  0  0  0  0
    4.9770    0.3814    0.4144 C   0  0  0  0  0  0  0  0  0  0  0  0
    5.3923    0.2713   -0.8915 C   0  0  0  0  0  0  0  0  0  0  0  0
    6.5732    0.7690   -1.3632 C   0  0  0  0  0  0  0  0  0  0  0  0
    7.4348    1.4316   -0.5100 C   0  0  0  0  0  0  0  0  0  0  0  0
    7.0423    1.5556    0.8039 C   0  0  0  0  0  0  0  0  0  0  0  0
    5.8648    1.0576    1.2674 C   0  0  0  0  0  0  0  0  0  0  0  0
    3.0418   -0.9471   -0.8754 H   0  0  0  0  0  0  0  0  0  0  0  0
    1.3927   -1.1572    1.7331 H   0  0  0  0  0  0  0  0  0  0  0  0
    0.1604   -3.0483    0.6153 H   0  0  0  0  0  0  0  0  0  0  0  0
    1.3020   -3.0405   -0.8311 H   0  0  0  0  0  0  0  0  0  0  0  0
    0.5582   -0.6180   -1.2622 H   0  0  0  0  0  0  0  0  0  0  0  0
   -1.7006    0.9048   -1.0036 H   0  0  0  0  0  0  0  0  0  0  0  0
   -3.5739    2.3099    0.2144 H   0  0  0  0  0  0  0  0  0  0  0  0
   -4.0843    1.7204    1.8817 H   0  0  0  0  0  0  0  0  0  0  0  0
   -5.7118   -0.1315    2.0751 H   0  0  0  0  0  0  0  0  0  0  0  0
   -7.4950   -1.3844    1.0065 H   0  0  0  0  0  0  0  0  0  0  0  0
   -7.8127   -1.3537   -1.4443 H   0  0  0  0  0  0  0  0  0  0  0  0
   -6.2370    0.0139   -2.8203 H   0  0  0  0  0  0  0  0  0  0  0  0
   -4.4575    1.2709   -1.8145 H   0  0  0  0  0  0  0  0  0  0  0  0
    4.7495   -0.2384   -1.5894 H   0  0  0  0  0  0  0  0  0  0  0  0
    6.8375    0.6464   -2.4043 H   0  0  0  0  0  0  0  0  0  0  0  0
    8.3777    1.8336   -0.8686 H   0  0  0  0  0  0  0  0  0  0  0  0
    7.7115    2.0766    1.4917 H   0  0  0  0  0  0  0  0  0  0  0  0
    5.5812    1.1705    2.3099 H   0  0  0  0  0  0  0  0  0  0  0  0
  1  2  2  0
  2  3  1  0
  3  4  1  0
  4  5  1  0
  5  6  1  0
  6  7  1  0
  7  8  2  0
  8  9  1  0
  9 10  1  0
 10 11  1  0
 11 12  2  0
 12 13  1  0
 13 14  2  0
 14 15  1  0
 15 16  2  0
  9 17  1  0
 17 18  2  0
  2 19  1  0
 19 20  2  0
 20 21  1  0
 21 22  2  0
 22 23  1  0
 23 24  2  0
  6  4  1  0
 18  7  1  0
 24 19  1  0
 16 11  1  0
  3 25  1  0
  4 26  1  1
  5 27  1  0
  5 28  1  0
  6 29  1  6
  8 30  1  0
 10 31  1  0
 10 32  1  0
 12 33  1  0
 13 34  1  0
 14 35  1  0
 15 36  1  0
 16 37  1  0
 20 38  1  0
 21 39  1  0
 22 40  1  0
 23 41  1  0
 24 42  1  0
M  END
$$$$
[H]c1nc2c([H])c(c1[H])C(=O)N([H])C(=O)[C@@]([H])(C([H])([H])[H])C([H])([H])N(c1c(F)c(F)c([H])c(-c3c([H])nn([H])c3[H])c1F)C2([H])[H]
     RDKit          3D

 46 49  0  0  0  0  0  0  0  0999 V2000
   -2.8358   -2.6823    0.5377 C   0  0  0  0  0  0  0  0  0  0  0  0
   -2.4400   -1.1802    0.1380 C   0  0  1  0  0  0  0  0  0  0  0  0
   -1.1719   -0.8420    0.6430 C   0  0  0  0  0  0  0  0  0  0  0  0
   -0.0600   -0.0450    0.3793 N   0  0  0  0  0  0  0  0  0  0  0  0
   -0.0388    1.4527    0.4607 C   0  0  0  0  0  0  0  0  0  0  0  0
   -1.4821    1.9387    0.3380 C   0  0  0  0  0  0  0  0  0  0  0  0
   -2.3252    1.6012   -0.7061 C   0  0  0  0  0  0  0  0  0  0  0  0
   -3.6495    1.7588   -0.3820 C   0  0  0  0  0  0  0  0  0  0  0  0
   -4.1019    2.2478    0.8389 C   0  0  0  0  0  0  0  0  0  0  0  0
   -3.2191    2.5989    1.8482 C   0  0  0  0  0  0  0  0  0  0  0  0
   -1.9308    2.4078    1.5171 N   0  0  0  0  0  0  0  0  0  0  0  0
   -4.7350    0.9260   -1.0828 C   0  0  0  0  0  0  0  0  0  0  0  0
   -5.8250    1.4650   -1.2907 O   0  0  0  0  0  0  0  0  0  0  0  0
   -4.3977   -0.4644   -1.4503 N   0  0  0  0  0  0  0  0  0  0  0  0
   -3.0944   -1.0364   -1.1304 C   0  0  0  0  0  0  0  0  0  0  0  0
   -2.5034   -1.4593   -2.1952 O   0  0  0  0  0  0  0  0  0  0  0  0
    1.1936   -0.6030   -0.0580 C   0  0  0  0  0  0  0  0  0  0  0  0
    1.3674   -1.8433   -0.6032 C   0  0  0  0  0  0  0  0  0  0  0  0
    0.3164   -2.6161   -0.9178 F   0  0  0  0  0  0  0  0  0  0  0  0
    2.6144   -2.3936   -0.9101 C   0  0  0  0  0  0  0  0  0  0  0  0
    2.6911   -3.6362   -1.4491 F   0  0  0  0  0  0  0  0  0  0  0  0
    3.7522   -1.6610   -0.6586 C   0  0  0  0  0  0  0  0  0  0  0  0
    3.6506   -0.4023   -0.1096 C   0  0  0  0  0  0  0  0  0  0  0  0
    2.3946    0.0865    0.1734 C   0  0  0  0  0  0  0  0  0  0  0  0
    2.4120    1.2884    0.7741 F   0  0  0  0  0  0  0  0  0  0  0  0
    4.8515    0.3834    0.1602 C   0  0  0  0  0  0  0  0  0  0  0  0
    5.1965    1.1109    1.2532 C   0  0  0  0  0  0  0  0  0  0  0  0
    6.4228    1.6760    1.0484 N   0  0  0  0  0  0  0  0  0  0  0  0
    6.8452    1.3090   -0.1589 N   0  0  0  0  0  0  0  0  0  0  0  0
    5.9075    0.5235   -0.7176 C   0  0  0  0  0  0  0  0  0  0  0  0
   -2.4319   -2.8901    1.5326 H   0  0  0  0  0  0  0  0  0  0  0  0
   -2.4046   -3.3651   -0.1855 H   0  0  0  0  0  0  0  0  0  0  0  0
   -3.9124   -2.7693    0.5501 H   0  0  0  0  0  0  0  0  0  0  0  0
   -3.2275   -0.7066    0.8954 H   0  0  0  0  0  0  0  0  0  0  0  0
   -0.7235   -1.8685    1.0277 H   0  0  0  0  0  0  0  0  0  0  0  0
   -1.3594   -0.4827    1.8015 H   0  0  0  0  0  0  0  0  0  0  0  0
    0.2754    1.7445    1.4696 H   0  0  0  0  0  0  0  0  0  0  0  0
    0.6562    1.7989   -0.2463 H   0  0  0  0  0  0  0  0  0  0  0  0
   -1.9352    1.4040   -1.7750 H   0  0  0  0  0  0  0  0  0  0  0  0
   -5.1809    2.3792    1.0163 H   0  0  0  0  0  0  0  0  0  0  0  0
   -3.5290    2.9831    2.7929 H   0  0  0  0  0  0  0  0  0  0  0  0
   -5.1377   -0.9782   -1.9532 H   0  0  0  0  0  0  0  0  0  0  0  0
    4.7434   -2.0617   -0.8879 H   0  0  0  0  0  0  0  0  0  0  0  0
    4.5896    1.2163    2.1340 H   0  0  0  0  0  0  0  0  0  0  0  0
    7.7523    1.5885   -0.5909 H   0  0  0  0  0  0  0  0  0  0  0  0
    6.0200    0.0984   -1.7020 H   0  0  0  0  0  0  0  0  0  0  0  0
  1  2  1  0
  2  3  1  0
  3  4  1  0
  4  5  1  0
  5  6  1  0
  6  7  1  0
  7  8  2  0
  8  9  1  0
  9 10  2  0
 10 11  1  0
  8 12  1  0
 12 13  2  0
 12 14  1  0
 14 15  1  0
 15 16  2  0
  4 17  1  0
 17 18  2  0
 18 19  1  0
 18 20  1  0
 20 21  1  0
 20 22  2  0
 22 23  1  0
 23 24  2  0
 24 25  1  0
 23 26  1  0
 26 27  1  0
 27 28  2  0
 28 29  1  0
 29 30  1  0
 15  2  1  0
 24 17  1  0
 30 26  2  0
 11  6  2  0
  1 31  1  0
  1 32  1  0
  1 33  1  0
  2 34  1  1
  3 35  1  0
  3 36  1  0
  5 37  1  0
  5 38  1  0
  7 39  1  0
  9 40  1  0
 10 41  1  0
 14 42  1  0
 22 43  1  0
 27 44  1  0
 29 45  1  0
 30 46  1  0
M  END
$$$$
[H]c1nc([C@]2([H])C([H])([H])C([H])([H])[C@]([H])(N([H])c3c([H])c([H])c(F)c([H])c3[H])C([H])([H])C2([H])[H])c([H])c([H])c1-c1c([H])c([H])c([H])c([H])c1C([H])([H])C([H])([H])[H]
     RDKit          3D

 55 58  0  0  0  0  0  0  0  0999 V2000
   -5.0448   -2.0576   -0.2051 C   0  0  0  0  0  0  0  0  0  0  0  0
   -5.5787   -0.9577    0.6918 C   0  0  0  0  0  0  0  0  0  0  0  0
   -5.7726    0.3051   -0.0583 C   0  0  0  0  0  0  0  0  0  0  0  0
   -7.0680    0.6995   -0.4250 C   0  0  0  0  0  0  0  0  0  0  0  0
   -7.3199    1.8379   -1.1436 C   0  0  0  0  0  0  0  0  0  0  0  0
   -6.2291    2.5985   -1.5009 C   0  0  0  0  0  0  0  0  0  0  0  0
   -4.9556    2.2337   -1.1536 C   0  0  0  0  0  0  0  0  0  0  0  0
   -4.6908    1.0687   -0.4169 C   0  0  0  0  0  0  0  0  0  0  0  0
   -3.3113    0.7730   -0.0662 C   0  0  0  0  0  0  0  0  0  0  0  0
   -2.8936    0.7113    1.2328 C   0  0  0  0  0  0  0  0  0  0  0  0
   -1.5660    0.4005    1.5168 C   0  0  0  0  0  0  0  0  0  0  0  0
   -0.6709    0.1563    0.5142 C   0  0  0  0  0  0  0  0  0  0  0  0
   -1.0928    0.2209   -0.7555 N   0  0  0  0  0  0  0  0  0  0  0  0
   -2.3797    0.5207   -1.0621 C   0  0  0  0  0  0  0  0  0  0  0  0
    0.7648   -0.1825    0.7811 C   0  0  2  0  0  0  0  0  0  0  0  0
    1.5828    0.9159    0.2120 C   0  0  0  0  0  0  0  0  0  0  0  0
    2.9151    0.5352   -0.3497 C   0  0  0  0  0  0  0  0  0  0  0  0
    3.3083   -0.8717    0.0053 C   0  0  1  0  0  0  0  0  0  0  0  0
    2.2154   -1.7559   -0.5731 C   0  0  0  0  0  0  0  0  0  0  0  0
    0.9808   -1.5449    0.2273 C   0  0  0  0  0  0  0  0  0  0  0  0
    4.6010   -1.2054   -0.4973 N   0  0  0  0  0  0  0  0  0  0  0  0
    5.7847   -0.5887   -0.0330 C   0  0  0  0  0  0  0  0  0  0  0  0
    6.9762   -0.8244   -0.7191 C   0  0  0  0  0  0  0  0  0  0  0  0
    8.1377   -0.2594   -0.2957 C   0  0  0  0  0  0  0  0  0  0  0  0
    8.1263    0.5549    0.8265 C   0  0  0  0  0  0  0  0  0  0  0  0
    9.3207    1.0833    1.1894 F   0  0  0  0  0  0  0  0  0  0  0  0
    6.9549    0.7965    1.5147 C   0  0  0  0  0  0  0  0  0  0  0  0
    5.7849    0.2210    1.0799 C   0  0  0  0  0  0  0  0  0  0  0  0
   -5.4121   -3.0329    0.1659 H   0  0  0  0  0  0  0  0  0  0  0  0
   -5.3545   -1.9283   -1.2549 H   0  0  0  0  0  0  0  0  0  0  0  0
   -3.9193   -2.1156   -0.1552 H   0  0  0  0  0  0  0  0  0  0  0  0
   -6.6173   -1.3134    0.9895 H   0  0  0  0  0  0  0  0  0  0  0  0
   -4.9715   -0.8625    1.5986 H   0  0  0  0  0  0  0  0  0  0  0  0
   -7.9083    0.0868   -0.1340 H   0  0  0  0  0  0  0  0  0  0  0  0
   -8.3180    2.1522   -1.4326 H   0  0  0  0  0  0  0  0  0  0  0  0
   -6.3970    3.5029   -2.0697 H   0  0  0  0  0  0  0  0  0  0  0  0
   -4.0841    2.8338   -1.4348 H   0  0  0  0  0  0  0  0  0  0  0  0
   -3.5875    0.9202    2.0679 H   0  0  0  0  0  0  0  0  0  0  0  0
   -1.2734    0.3607    2.5686 H   0  0  0  0  0  0  0  0  0  0  0  0
   -2.6401    0.5525   -2.1161 H   0  0  0  0  0  0  0  0  0  0  0  0
    0.8564   -0.1819    1.9108 H   0  0  0  0  0  0  0  0  0  0  0  0
    0.9799    1.5270   -0.5231 H   0  0  0  0  0  0  0  0  0  0  0  0
    1.7903    1.6582    1.0388 H   0  0  0  0  0  0  0  0  0  0  0  0
    3.7058    1.2898   -0.2136 H   0  0  0  0  0  0  0  0  0  0  0  0
    2.7663    0.5120   -1.4771 H   0  0  0  0  0  0  0  0  0  0  0  0
    3.3143   -0.9341    1.1246 H   0  0  0  0  0  0  0  0  0  0  0  0
    2.0014   -1.3947   -1.6219 H   0  0  0  0  0  0  0  0  0  0  0  0
    2.4999   -2.8145   -0.5810 H   0  0  0  0  0  0  0  0  0  0  0  0
    0.1185   -1.9128   -0.4030 H   0  0  0  0  0  0  0  0  0  0  0  0
    1.0143   -2.2673    1.0924 H   0  0  0  0  0  0  0  0  0  0  0  0
    4.6953   -1.9375   -1.2420 H   0  0  0  0  0  0  0  0  0  0  0  0
    6.9598   -1.4685   -1.5993 H   0  0  0  0  0  0  0  0  0  0  0  0
    9.0353   -0.4744   -0.8639 H   0  0  0  0  0  0  0  0  0  0  0  0
    6.9930    1.4414    2.3902 H   0  0  0  0  0  0  0  0  0  0  0  0
    4.8729    0.4161    1.6382 H   0  0  0  0  0  0  0  0  0  0  0  0
  1  2  1  0
  2  3  1  0
  3  4  2  0
  4  5  1  0
  5  6  2  0
  6  7  1  0
  7  8  2  0
  8  9  1  0
  9 10  2  0
 10 11  1  0
 11 12  2  0
 12 13  1  0
 13 14  2  0
 12 15  1  0
 15 16  1  0
 16 17  1  0
 17 18  1  0
 18 19  1  0
 19 20  1  0
 18 21  1  0
 21 22  1  0
 22 23  2  0
 23 24  1  0
 24 25  2  0
 25 26  1  0
 25 27  1  0
 27 28  2  0
  8  3  1  0
 14  9  1  0
 20 15  1  0
 28 22  1  0
  1 29  1  0
  1 30  1  0
  1 31  1  0
  2 32  1  0
  2 33  1  0
  4 34  1  0
  5 35  1  0
  6 36  1  0
  7 37  1  0
 10 38  1  0
 11 39  1  0
 14 40  1  0
 15 41  1  1
 16 42  1  0
 16 43  1  0
 17 44  1  0
 17 45  1  0
 18 46  1  1
 19 47  1  0
 19 48  1  0
 20 49  1  0
 20 50  1  0
 21 51  1  0
 23 52  1  0
 24 53  1  0
 27 54  1  0
 28 55  1  0
M  END
$$$$
[H]Oc1c([H])c([H])c(C([H])([H])N2c3c([H])c([H])c(c([H])c3[H])N([H])C(=O)C([H])([H])C([H])([H])N([H])c3c([H])c(OC([H])([H])[H])c(OC([H])([H])[H])c([H])c32)c([H])c1Cl
     RDKit          3D

 56 59  0  0  0  0  0  0  0  0999 V2000
   -4.7874   -3.5112    0.5572 C   0  0  0  0  0  0  0  0  0  0  0  0
   -3.5171   -3.8919    0.1137 O   0  0  0  0  0  0  0  0  0  0  0  0
   -2.4752   -2.9528   -0.0678 C   0  0  0  0  0  0  0  0  0  0  0  0
   -2.6588   -1.6286    0.1812 C   0  0  0  0  0  0  0  0  0  0  0  0
   -1.6993   -0.5717    0.0409 C   0  0  0  0  0  0  0  0  0  0  0  0
   -2.3107    0.6711    0.3306 N   0  0  0  0  0  0  0  0  0  0  0  0
   -2.9526    1.8039   -0.3889 C   0  0  0  0  0  0  0  0  0  0  0  0
   -2.8639    3.1093    0.2830 C   0  0  0  0  0  0  0  0  0  0  0  0
   -2.7149    4.3705   -0.4355 C   0  0  0  0  0  0  0  0  0  0  0  0
   -3.6974    5.0241   -0.9246 O   0  0  0  0  0  0  0  0  0  0  0  0
   -1.3491    4.9681   -0.6337 N   0  0  0  0  0  0  0  0  0  0  0  0
   -0.3730    3.8571   -0.6996 C   0  0  0  0  0  0  0  0  0  0  0  0
    0.0824    3.2847    0.4737 C   0  0  0  0  0  0  0  0  0  0  0  0
    0.6114    1.9650    0.4736 C   0  0  0  0  0  0  0  0  0  0  0  0
    0.7112    1.1804   -0.6615 C   0  0  0  0  0  0  0  0  0  0  0  0
    0.2819    1.7901   -1.8198 C   0  0  0  0  0  0  0  0  0  0  0  0
   -0.2539    3.1062   -1.8555 C   0  0  0  0  0  0  0  0  0  0  0  0
    0.8408   -0.3058   -0.5686 N   0  0  0  0  0  0  0  0  0  0  0  0
    2.0779   -1.1056   -0.6570 C   0  0  0  0  0  0  0  0  0  0  0  0
    3.2470   -0.5836    0.0746 C   0  0  0  0  0  0  0  0  0  0  0  0
    3.5370   -0.8306    1.3979 C   0  0  0  0  0  0  0  0  0  0  0  0
    4.6412   -0.3245    2.0486 C   0  0  0  0  0  0  0  0  0  0  0  0
    5.5148    0.4784    1.3429 C   0  0  0  0  0  0  0  0  0  0  0  0
    6.6309    0.9856    2.0139 O   0  0  0  0  0  0  0  0  0  0  0  0
    5.2568    0.7424    0.0312 C   0  0  0  0  0  0  0  0  0  0  0  0
    6.3879    1.7721   -0.8533 Cl  0  0  0  0  0  0  0  0  0  0  0  0
    4.1467    0.2285   -0.6076 C   0  0  0  0  0  0  0  0  0  0  0  0
   -0.4611   -1.0316   -0.3938 C   0  0  0  0  0  0  0  0  0  0  0  0
   -0.2906   -2.3948   -0.6492 C   0  0  0  0  0  0  0  0  0  0  0  0
   -1.2545   -3.3545   -0.4992 C   0  0  0  0  0  0  0  0  0  0  0  0
   -1.0359   -4.6936   -0.7662 O   0  0  0  0  0  0  0  0  0  0  0  0
    0.2327   -5.1006   -1.2135 C   0  0  0  0  0  0  0  0  0  0  0  0
   -5.3533   -2.9894   -0.2389 H   0  0  0  0  0  0  0  0  0  0  0  0
   -5.3492   -4.4365    0.8006 H   0  0  0  0  0  0  0  0  0  0  0  0
   -4.7716   -2.9079    1.4856 H   0  0  0  0  0  0  0  0  0  0  0  0
   -3.6805   -1.4498    0.5667 H   0  0  0  0  0  0  0  0  0  0  0  0
   -2.3938    0.9916    1.3752 H   0  0  0  0  0  0  0  0  0  0  0  0
   -2.8900    1.7315   -1.4736 H   0  0  0  0  0  0  0  0  0  0  0  0
   -4.0895    1.5890   -0.3189 H   0  0  0  0  0  0  0  0  0  0  0  0
   -2.2282    3.0254    1.1831 H   0  0  0  0  0  0  0  0  0  0  0  0
   -3.8829    3.3276    0.8590 H   0  0  0  0  0  0  0  0  0  0  0  0
   -1.3605    5.9921   -0.6866 H   0  0  0  0  0  0  0  0  0  0  0  0
    0.2058    3.5894    1.5301 H   0  0  0  0  0  0  0  0  0  0  0  0
    0.9108    1.7606    1.5543 H   0  0  0  0  0  0  0  0  0  0  0  0
    0.2666    1.4550   -2.9062 H   0  0  0  0  0  0  0  0  0  0  0  0
   -0.4407    3.2628   -2.9382 H   0  0  0  0  0  0  0  0  0  0  0  0
    2.2829   -1.4764   -1.6686 H   0  0  0  0  0  0  0  0  0  0  0  0
    1.9034   -2.0698   -0.0539 H   0  0  0  0  0  0  0  0  0  0  0  0
    2.8558   -1.4590    1.9552 H   0  0  0  0  0  0  0  0  0  0  0  0
    4.8114   -0.5609    3.1028 H   0  0  0  0  0  0  0  0  0  0  0  0
    7.2810    1.5735    1.5177 H   0  0  0  0  0  0  0  0  0  0  0  0
    4.0156    0.4867   -1.6506 H   0  0  0  0  0  0  0  0  0  0  0  0
    0.6443   -2.8260   -1.0483 H   0  0  0  0  0  0  0  0  0  0  0  0
    0.1943   -6.1996   -1.3450 H   0  0  0  0  0  0  0  0  0  0  0  0
    0.5073   -4.6730   -2.2047 H   0  0  0  0  0  0  0  0  0  0  0  0
    1.0559   -4.7928   -0.5178 H   0  0  0  0  0  0  0  0  0  0  0  0
  1  2  1  0
  2  3  1  0
  3  4  2  0
  4  5  1  0
  5  6  1  0
  6  7  1  0
  7  8  1  0
  8  9  1  0
  9 10  2  0
  9 11  1  0
 11 12  1  0
 12 13  2  0
 13 14  1  0
 14 15  2  0
 15 16  1  0
 16 17  2  0
 15 18  1  0
 18 19  1  0
 19 20  1  0
 20 21  2  0
 21 22  1  0
 22 23  2  0
 23 24  1  0
 23 25  1  0
 25 26  1  0
 25 27  2  0
 18 28  1  0
 28 29  1  0
 29 30  2  0
 30 31  1  0
 31 32  1  0
 30  3  1  0
 28  5  2  0
 17 12  1  0
 27 20  1  0
  1 33  1  0
  1 34  1  0
  1 35  1  0
  4 36  1  0
  6 37  1  0
  7 38  1  0
  7 39  1  0
  8 40  1  0
  8 41  1  0
 11 42  1  0
 13 43  1  0
 14 44  1  0
 16 45  1  0
 17 46  1  0
 19 47  1  0
 19 48  1  0
 21 49  1  0
 22 50  1  0
 24 51  1  0
 27 52  1  0
 29 53  1  0
 32 54  1  0
 32 55  1  0
 32 56  1  0
M  END
$$$$
[H]c1nc(-c2c(C([H])([H])[H])nc(N3C([H])([H])C([H])([H])N(C(=O)C4([H])C([H])([H])C([H])([H])S(=O)(=O)C([H])([H])C4([H])[H])C([H])([H])C3([H])[H])n2[H])c([H])o1
     RDKit          3D

 50 53  0  0  0  0  0  0  0  0999 V2000
   -5.2979   -2.4349    0.3386 C   0  0  0  0  0  0  0  0  0  0  0  0
   -4.3669   -1.3098    0.1355 C   0  0  0  0  0  0  0  0  0  0  0  0
   -3.0285   -1.4288   -0.1334 N   0  0  0  0  0  0  0  0  0  0  0  0
   -2.5261   -0.1981   -0.2514 C   0  0  0  0  0  0  0  0  0  0  0  0
   -3.5185    0.6830   -0.0627 N   0  0  0  0  0  0  0  0  0  0  0  0
   -4.6895    0.0199    0.1829 C   0  0  0  0  0  0  0  0  0  0  0  0
   -5.9494    0.6855    0.4291 C   0  0  0  0  0  0  0  0  0  0  0  0
   -7.1573    0.1090    0.6808 C   0  0  0  0  0  0  0  0  0  0  0  0
   -8.0534    1.0805    0.8495 O   0  0  0  0  0  0  0  0  0  0  0  0
   -7.4887    2.2500    0.7203 C   0  0  0  0  0  0  0  0  0  0  0  0
   -6.1913    2.0223    0.4608 N   0  0  0  0  0  0  0  0  0  0  0  0
   -1.1842    0.1922   -0.5269 N   0  0  0  0  0  0  0  0  0  0  0  0
   -0.2147    0.4318    0.5243 C   0  0  0  0  0  0  0  0  0  0  0  0
    0.8925   -0.6119    0.3337 C   0  0  0  0  0  0  0  0  0  0  0  0
    1.4205   -0.4241   -0.9989 N   0  0  0  0  0  0  0  0  0  0  0  0
    0.4737   -0.5000   -2.0884 C   0  0  0  0  0  0  0  0  0  0  0  0
   -0.7336    0.3660   -1.8938 C   0  0  0  0  0  0  0  0  0  0  0  0
    2.7744   -0.1769   -1.2893 C   0  0  0  0  0  0  0  0  0  0  0  0
    3.1146   -0.0389   -2.5035 O   0  0  0  0  0  0  0  0  0  0  0  0
    3.8471   -0.0620   -0.2870 C   0  0  0  0  0  0  0  0  0  0  0  0
    5.1756    0.0636   -1.0002 C   0  0  0  0  0  0  0  0  0  0  0  0
    6.2209   -0.5601   -0.1320 C   0  0  0  0  0  0  0  0  0  0  0  0
    5.9957   -0.0474    1.5287 S   0  0  0  0  0  0  0  0  0  0  0  0
    7.2395    0.7349    1.9301 O   0  0  0  0  0  0  0  0  0  0  0  0
    5.9896   -1.2606    2.4494 O   0  0  0  0  0  0  0  0  0  0  0  0
    4.5638    0.9097    1.8173 C   0  0  0  0  0  0  0  0  0  0  0  0
    3.7325    1.1550    0.5905 C   0  0  0  0  0  0  0  0  0  0  0  0
   -6.0824   -2.5137   -0.4404 H   0  0  0  0  0  0  0  0  0  0  0  0
   -4.7117   -3.3891    0.2333 H   0  0  0  0  0  0  0  0  0  0  0  0
   -5.7039   -2.4733    1.3668 H   0  0  0  0  0  0  0  0  0  0  0  0
   -3.4399    1.7065   -0.0923 H   0  0  0  0  0  0  0  0  0  0  0  0
   -7.4316   -0.9518    0.7500 H   0  0  0  0  0  0  0  0  0  0  0  0
   -7.9843    3.2337    0.8078 H   0  0  0  0  0  0  0  0  0  0  0  0
    0.2659    1.4151    0.3061 H   0  0  0  0  0  0  0  0  0  0  0  0
   -0.6505    0.3723    1.5328 H   0  0  0  0  0  0  0  0  0  0  0  0
    1.6300   -0.6045    1.1319 H   0  0  0  0  0  0  0  0  0  0  0  0
    0.4142   -1.6349    0.3400 H   0  0  0  0  0  0  0  0  0  0  0  0
    0.9536   -0.2187   -3.0559 H   0  0  0  0  0  0  0  0  0  0  0  0
    0.1814   -1.5800   -2.2221 H   0  0  0  0  0  0  0  0  0  0  0  0
   -1.5077    0.0214   -2.6109 H   0  0  0  0  0  0  0  0  0  0  0  0
   -0.4157    1.4185   -2.0946 H   0  0  0  0  0  0  0  0  0  0  0  0
    3.7918   -0.9692    0.3560 H   0  0  0  0  0  0  0  0  0  0  0  0
    5.1496   -0.3501   -2.0235 H   0  0  0  0  0  0  0  0  0  0  0  0
    5.4489    1.1461   -1.1169 H   0  0  0  0  0  0  0  0  0  0  0  0
    6.0830   -1.6782   -0.2153 H   0  0  0  0  0  0  0  0  0  0  0  0
    7.2608   -0.3870   -0.5053 H   0  0  0  0  0  0  0  0  0  0  0  0
    3.9017    0.4026    2.5627 H   0  0  0  0  0  0  0  0  0  0  0  0
    4.8544    1.8754    2.3197 H   0  0  0  0  0  0  0  0  0  0  0  0
    2.7258    1.4900    0.8126 H   0  0  0  0  0  0  0  0  0  0  0  0
    4.2263    2.0191    0.0535 H   0  0  0  0  0  0  0  0  0  0  0  0
  1  2  1  0
  2  3  1  0
  3  4  2  0
  4  5  1  0
  5  6  1  0
  6  7  1  0
  7  8  2  0
  8  9  1  0
  9 10  1  0
 10 11  2  0
  4 12  1  0
 12 13  1  0
 13 14  1  0
 14 15  1  0
 15 16  1  0
 16 17  1  0
 15 18  1  0
 18 19  2  0
 18 20  1  0
 20 21  1  0
 21 22  1  0
 22 23  1  0
 23 24  2  0
 23 25  2  0
 23 26  1  0
 26 27  1  0
  6  2  2  0
 11  7  1  0
 17 12  1  0
 27 20  1  0
  1 28  1  0
  1 29  1  0
  1 30  1  0
  5 31  1  0
  8 32  1  0
 10 33  1  0
 13 34  1  0
 13 35  1  0
 14 36  1  0
 14 37  1  0
 16 38  1  0
 16 39  1  0
 17 40  1  0
 17 41  1  0
 20 42  1  0
 21 43  1  0
 21 44  1  0
 22 45  1  0
 22 46  1  0
 26 47  1  0
 26 48  1  0
 27 49  1  0
 27 50  1  0
M  END
$$$$
[H]OC(=O)c1c(F)c([H])c([H])c([H])c1-c1c([H])c([H])c(C([H])([H])N2C([H])([H])C([H])([H])N(C([H])([H])c3c(F)c([H])c([H])c([H])c3C([H])([H])C(F)(F)F)C([H])([H])C2([H])[H])c([H])c1Cl
     RDKit          3D

 61 64  0  0  0  0  0  0  0  0999 V2000
    6.3528   -1.7909    1.5684 O   0  0  0  0  0  0  0  0  0  0  0  0
    6.8827   -1.4015    0.3108 C   0  0  0  0  0  0  0  0  0  0  0  0
    7.1582   -2.3039   -0.5108 O   0  0  0  0  0  0  0  0  0  0  0  0
    7.1022   -0.0114   -0.0259 C   0  0  0  0  0  0  0  0  0  0  0  0
    8.3970    0.5205    0.1590 C   0  0  0  0  0  0  0  0  0  0  0  0
    9.3629   -0.3327    0.6049 F   0  0  0  0  0  0  0  0  0  0  0  0
    8.6244    1.8158   -0.0509 C   0  0  0  0  0  0  0  0  0  0  0  0
    7.5880    2.6585   -0.4582 C   0  0  0  0  0  0  0  0  0  0  0  0
    6.3129    2.1782   -0.6557 C   0  0  0  0  0  0  0  0  0  0  0  0
    6.0819    0.8600   -0.4367 C   0  0  0  0  0  0  0  0  0  0  0  0
    4.7349    0.3089   -0.4832 C   0  0  0  0  0  0  0  0  0  0  0  0
    4.3731   -0.8363   -1.1079 C   0  0  0  0  0  0  0  0  0  0  0  0
    3.1383   -1.4255   -1.0239 C   0  0  0  0  0  0  0  0  0  0  0  0
    2.1948   -0.7856   -0.2365 C   0  0  0  0  0  0  0  0  0  0  0  0
    0.9381   -1.4627    0.0403 C   0  0  0  0  0  0  0  0  0  0  0  0
   -0.1178   -0.6334    0.5345 N   0  0  0  0  0  0  0  0  0  0  0  0
   -0.9410   -1.5616    1.3392 C   0  0  0  0  0  0  0  0  0  0  0  0
   -2.1703   -0.8866    1.8640 C   0  0  0  0  0  0  0  0  0  0  0  0
   -3.0234   -0.4626    0.7209 N   0  0  0  0  0  0  0  0  0  0  0  0
   -4.3285   -0.8050    1.0430 C   0  0  0  0  0  0  0  0  0  0  0  0
   -5.4644   -0.5203    0.1996 C   0  0  0  0  0  0  0  0  0  0  0  0
   -5.7977    0.7909   -0.0825 C   0  0  0  0  0  0  0  0  0  0  0  0
   -4.7473    1.7484    0.2503 C   0  0  0  0  0  0  0  0  0  0  0  0
   -5.1377    3.2081    0.1562 C   0  0  0  0  0  0  0  0  0  0  0  0
   -4.0420    4.0358    0.5148 F   0  0  0  0  0  0  0  0  0  0  0  0
   -5.4810    3.6000   -1.1239 F   0  0  0  0  0  0  0  0  0  0  0  0
   -6.1209    3.5287    1.0801 F   0  0  0  0  0  0  0  0  0  0  0  0
   -6.9746    1.0582   -0.7262 C   0  0  0  0  0  0  0  0  0  0  0  0
   -7.8806    0.0407   -1.1136 C   0  0  0  0  0  0  0  0  0  0  0  0
   -7.5255   -1.2599   -0.8266 C   0  0  0  0  0  0  0  0  0  0  0  0
   -6.3338   -1.5321   -0.1796 C   0  0  0  0  0  0  0  0  0  0  0  0
   -6.0632   -2.8510    0.0753 F   0  0  0  0  0  0  0  0  0  0  0  0
   -2.3663   -0.9236   -0.4618 C   0  0  0  0  0  0  0  0  0  0  0  0
   -1.0126   -0.2220   -0.5445 C   0  0  0  0  0  0  0  0  0  0  0  0
    2.4889    0.3803    0.4162 C   0  0  0  0  0  0  0  0  0  0  0  0
    3.7433    0.9267    0.3000 C   0  0  0  0  0  0  0  0  0  0  0  0
    4.1182    2.4154    1.1689 Cl  0  0  0  0  0  0  0  0  0  0  0  0
    5.6890   -2.6012    1.5312 H   0  0  0  0  0  0  0  0  0  0  0  0
    9.5761    2.2912    0.0515 H   0  0  0  0  0  0  0  0  0  0  0  0
    7.7817    3.7128   -0.6296 H   0  0  0  0  0  0  0  0  0  0  0  0
    5.5411    2.8683   -0.9887 H   0  0  0  0  0  0  0  0  0  0  0  0
    5.0806   -1.3061   -1.7623 H   0  0  0  0  0  0  0  0  0  0  0  0
    2.8915   -2.3579   -1.5683 H   0  0  0  0  0  0  0  0  0  0  0  0
    1.1757   -2.2138    0.8619 H   0  0  0  0  0  0  0  0  0  0  0  0
    0.6106   -2.1116   -0.8017 H   0  0  0  0  0  0  0  0  0  0  0  0
   -0.2899   -1.7183    2.2669 H   0  0  0  0  0  0  0  0  0  0  0  0
   -1.0389   -2.5433    0.9095 H   0  0  0  0  0  0  0  0  0  0  0  0
   -1.8599   -0.0415    2.4753 H   0  0  0  0  0  0  0  0  0  0  0  0
   -2.7002   -1.6191    2.5073 H   0  0  0  0  0  0  0  0  0  0  0  0
   -4.6088   -0.7145    2.1204 H   0  0  0  0  0  0  0  0  0  0  0  0
   -4.2718   -2.0048    0.9958 H   0  0  0  0  0  0  0  0  0  0  0  0
   -3.9148    1.6726   -0.5291 H   0  0  0  0  0  0  0  0  0  0  0  0
   -4.3343    1.6340    1.2960 H   0  0  0  0  0  0  0  0  0  0  0  0
   -7.2405    2.0739   -0.9445 H   0  0  0  0  0  0  0  0  0  0  0  0
   -8.7899    0.2845   -1.5989 H   0  0  0  0  0  0  0  0  0  0  0  0
   -8.1908   -2.0375   -1.1060 H   0  0  0  0  0  0  0  0  0  0  0  0
   -2.9636   -0.5068   -1.3276 H   0  0  0  0  0  0  0  0  0  0  0  0
   -2.2625   -1.9941   -0.5827 H   0  0  0  0  0  0  0  0  0  0  0  0
   -1.1474    0.8597   -0.5674 H   0  0  0  0  0  0  0  0  0  0  0  0
   -0.5283   -0.5158   -1.4874 H   0  0  0  0  0  0  0  0  0  0  0  0
    1.7315    0.8227    1.0129 H   0  0  0  0  0  0  0  0  0  0  0  0
  1  2  1  0
  2  3  2  0
  2  4  1  0
  4  5  2  0
  5  6  1  0
  5  7  1  0
  7  8  2  0
  8  9  1  0
  9 10  2  0
 10 11  1  0
 11 12  2  0
 12 13  1  0
 13 14  2  0
 14 15  1  0
 15 16  1  0
 16 17  1  0
 17 18  1  0
 18 19  1  0
 19 20  1  0
 20 21  1  0
 21 22  2  0
 22 23  1  0
 23 24  1  0
 24 25  1  0
 24 26  1  0
 24 27  1  0
 22 28  1  0
 28 29  2  0
 29 30  1  0
 30 31  2  0
 31 32  1  0
 19 33  1  0
 33 34  1  0
 14 35  1  0
 35 36  2  0
 36 37  1  0
 10  4  1  0
 36 11  1  0
 34 16  1  0
 31 21  1  0
  1 38  1  0
  7 39  1  0
  8 40  1  0
  9 41  1  0
 12 42  1  0
 13 43  1  0
 15 44  1  0
 15 45  1  0
 17 46  1  0
 17 47  1  0
 18 48  1  0
 18 49  1  0
 20 50  1  0
 20 51  1  0
 23 52  1  0
 23 53  1  0
 28 54  1  0
 29 55  1  0
 30 56  1  0
 33 57  1  0
 33 58  1  0
 34 59  1  0
 34 60  1  0
 35 61  1  0
M  END
$$$$
[H]c1c([H])c([H])c(-c2nc3c(c4c([H])c([H])c([H])c([H])c24)c2c([H])c(N4C([H])([H])C([H])([H])N(C([H])([H])C([H])([H])[H])C([H])([H])C4([H])[H])c([H])c([H])c2n3[H])c([H])c1[H]
     RDKit          3D

 57 62  0  0  0  0  0  0  0  0999 V2000
   -7.0118   -0.7903   -1.5314 C   0  0  0  0  0  0  0  0  0  0  0  0
   -6.0184    0.3507   -1.6583 C   0  0  0  0  0  0  0  0  0  0  0  0
   -5.7312    0.9333   -0.3877 N   0  0  0  0  0  0  0  0  0  0  0  0
   -4.8109    2.0068   -0.4194 C   0  0  0  0  0  0  0  0  0  0  0  0
   -3.4101    1.6997    0.0273 C   0  0  0  0  0  0  0  0  0  0  0  0
   -3.3736    0.5956    1.0062 N   0  0  0  0  0  0  0  0  0  0  0  0
   -4.6080    0.4148    1.7274 C   0  0  0  0  0  0  0  0  0  0  0  0
   -5.6763    0.0461    0.7195 C   0  0  0  0  0  0  0  0  0  0  0  0
   -2.2109   -0.1780    1.1933 C   0  0  0  0  0  0  0  0  0  0  0  0
   -2.2669   -1.3556    1.8870 C   0  0  0  0  0  0  0  0  0  0  0  0
   -1.1423   -2.1292    2.0936 C   0  0  0  0  0  0  0  0  0  0  0  0
    0.0844   -1.7165    1.5908 C   0  0  0  0  0  0  0  0  0  0  0  0
    1.2987   -2.2550    1.6420 N   0  0  0  0  0  0  0  0  0  0  0  0
    2.1890   -1.4885    1.0066 C   0  0  0  0  0  0  0  0  0  0  0  0
    3.5038   -1.6104    0.7964 N   0  0  0  0  0  0  0  0  0  0  0  0
    4.1995   -0.6651    0.1001 C   0  0  0  0  0  0  0  0  0  0  0  0
    5.6312   -0.8715   -0.0906 C   0  0  0  0  0  0  0  0  0  0  0  0
    6.0762   -2.0608   -0.6880 C   0  0  0  0  0  0  0  0  0  0  0  0
    7.4295   -2.2662   -0.7924 C   0  0  0  0  0  0  0  0  0  0  0  0
    8.3765   -1.3734   -0.3452 C   0  0  0  0  0  0  0  0  0  0  0  0
    7.9379   -0.2085    0.2400 C   0  0  0  0  0  0  0  0  0  0  0  0
    6.5821    0.0152    0.3536 C   0  0  0  0  0  0  0  0  0  0  0  0
    3.5396    0.4294   -0.3961 C   0  0  0  0  0  0  0  0  0  0  0  0
    4.2295    1.3781   -1.1216 C   0  0  0  0  0  0  0  0  0  0  0  0
    3.5884    2.4796   -1.6453 C   0  0  0  0  0  0  0  0  0  0  0  0
    2.2414    2.6274   -1.4387 C   0  0  0  0  0  0  0  0  0  0  0  0
    1.5152    1.6920   -0.7160 C   0  0  0  0  0  0  0  0  0  0  0  0
    2.1550    0.5970   -0.1963 C   0  0  0  0  0  0  0  0  0  0  0  0
    1.4884   -0.3884    0.5195 C   0  0  0  0  0  0  0  0  0  0  0  0
    0.1611   -0.5177    0.8799 C   0  0  0  0  0  0  0  0  0  0  0  0
   -0.9705    0.2344    0.6880 C   0  0  0  0  0  0  0  0  0  0  0  0
   -7.5243   -0.7283   -0.5419 H   0  0  0  0  0  0  0  0  0  0  0  0
   -6.4196   -1.7299   -1.5698 H   0  0  0  0  0  0  0  0  0  0  0  0
   -7.7259   -0.6961   -2.3745 H   0  0  0  0  0  0  0  0  0  0  0  0
   -6.3957    1.1369   -2.3384 H   0  0  0  0  0  0  0  0  0  0  0  0
   -5.0532   -0.0138   -2.0957 H   0  0  0  0  0  0  0  0  0  0  0  0
   -5.2092    2.9234    0.1067 H   0  0  0  0  0  0  0  0  0  0  0  0
   -4.7212    2.3473   -1.4938 H   0  0  0  0  0  0  0  0  0  0  0  0
   -3.0385    2.5832    0.6037 H   0  0  0  0  0  0  0  0  0  0  0  0
   -2.7313    1.5048   -0.8201 H   0  0  0  0  0  0  0  0  0  0  0  0
   -4.5881   -0.3530    2.5063 H   0  0  0  0  0  0  0  0  0  0  0  0
   -4.9095    1.3959    2.2082 H   0  0  0  0  0  0  0  0  0  0  0  0
   -5.4654   -0.9963    0.3624 H   0  0  0  0  0  0  0  0  0  0  0  0
   -6.6510    0.0272    1.2398 H   0  0  0  0  0  0  0  0  0  0  0  0
   -3.2043   -1.7183    2.2920 H   0  0  0  0  0  0  0  0  0  0  0  0
   -1.1814   -3.0695    2.6467 H   0  0  0  0  0  0  0  0  0  0  0  0
    1.5301   -3.1533    2.1128 H   0  0  0  0  0  0  0  0  0  0  0  0
    5.3458   -2.7609   -1.0387 H   0  0  0  0  0  0  0  0  0  0  0  0
    7.8116   -3.1830   -1.2530 H   0  0  0  0  0  0  0  0  0  0  0  0
    9.4364   -1.6011   -0.4609 H   0  0  0  0  0  0  0  0  0  0  0  0
    8.6880    0.4985    0.5946 H   0  0  0  0  0  0  0  0  0  0  0  0
    6.2839    0.9602    0.8338 H   0  0  0  0  0  0  0  0  0  0  0  0
    5.2811    1.2350   -1.2969 H   0  0  0  0  0  0  0  0  0  0  0  0
    4.1833    3.1932   -2.2063 H   0  0  0  0  0  0  0  0  0  0  0  0
    1.7768    3.5110   -1.8687 H   0  0  0  0  0  0  0  0  0  0  0  0
    0.4926    1.9034   -0.6204 H   0  0  0  0  0  0  0  0  0  0  0  0
   -1.0074    1.1585    0.1663 H   0  0  0  0  0  0  0  0  0  0  0  0
  1  2  1  0
  2  3  1  0
  3  4  1  0
  4  5  1  0
  5  6  1  0
  6  7  1  0
  7  8  1  0
  6  9  1  0
  9 10  2  0
 10 11  1  0
 11 12  2  0
 12 13  1  0
 13 14  1  0
 14 15  2  0
 15 16  1  0
 16 17  1  0
 17 18  2  0
 18 19  1  0
 19 20  2  0
 20 21  1  0
 21 22  2  0
 16 23  2  0
 23 24  1  0
 24 25  2  0
 25 26  1  0
 26 27  2  0
 27 28  1  0
 28 29  2  0
 29 30  1  0
 30 31  2  0
  8  3  1  0
 31  9  1  0
 30 12  1  0
 29 14  1  0
 22 17  1  0
 28 23  1  0
  1 32  1  0
  1 33  1  0
  1 34  1  0
  2 35  1  0
  2 36  1  0
  4 37  1  0
  4 38  1  0
  5 39  1  0
  5 40  1  0
  7 41  1  0
  7 42  1  0
  8 43  1  0
  8 44  1  0
 10 45  1  0
 11 46  1  0
 13 47  1  0
 18 48  1  0
 19 49  1  0
 20 50  1  0
 21 51  1  0
 22 52  1  0
 24 53  1  0
 25 54  1  0
 26 55  1  0
 27 56  1  0
 31 57  1  0
M  END
$$$$
[H]O[C@]1([H])C([H])([H])C([H])([H])[C@]([H])(N([H])C(=O)c2c([H])c(C(=O)N([H])c3sc4nc(-c5c([H])c([H])nc([H])c5F)n([H])c4c3[H])n(C([H])([H])C(C([H])([H])[H])(C([H])([H])[H])C([H])([H])[H])c2[H])C1([H])[H]
     RDKit          3D

 66 70  0  0  0  0  0  0  0  0999 V2000
   -2.6665   -4.3772   -0.7239 C   0  0  0  0  0  0  0  0  0  0  0  0
   -1.2477   -4.2145   -0.1511 C   0  0  0  0  0  0  0  0  0  0  0  0
   -0.8974   -5.5839    0.4448 C   0  0  0  0  0  0  0  0  0  0  0  0
   -0.2815   -3.9124   -1.2454 C   0  0  0  0  0  0  0  0  0  0  0  0
   -1.2673   -3.1657    0.9312 C   0  0  0  0  0  0  0  0  0  0  0  0
   -1.6834   -1.8513    0.5174 N   0  0  0  0  0  0  0  0  0  0  0  0
   -3.0068   -1.5234    0.3454 C   0  0  0  0  0  0  0  0  0  0  0  0
   -3.1275   -0.2460   -0.1037 C   0  0  0  0  0  0  0  0  0  0  0  0
   -1.8159    0.2123   -0.2048 C   0  0  0  0  0  0  0  0  0  0  0  0
   -0.9246   -0.8033    0.1889 C   0  0  0  0  0  0  0  0  0  0  0  0
    0.5295   -0.6545    0.2406 C   0  0  0  0  0  0  0  0  0  0  0  0
    1.2690   -1.4986    0.7490 O   0  0  0  0  0  0  0  0  0  0  0  0
    1.0853    0.5219   -0.3291 N   0  0  0  0  0  0  0  0  0  0  0  0
    2.4828    0.7599   -0.3897 C   0  0  0  0  0  0  0  0  0  0  0  0
    3.5777    0.0624   -0.0411 C   0  0  0  0  0  0  0  0  0  0  0  0
    4.8061    0.6065   -0.2580 C   0  0  0  0  0  0  0  0  0  0  0  0
    6.1263    0.2754   -0.0759 N   0  0  0  0  0  0  0  0  0  0  0  0
    6.9264    1.2698   -0.5106 C   0  0  0  0  0  0  0  0  0  0  0  0
    6.1300    2.2689   -0.9778 N   0  0  0  0  0  0  0  0  0  0  0  0
    4.8371    1.8472   -0.8210 C   0  0  0  0  0  0  0  0  0  0  0  0
    3.1861    2.2218   -1.0337 S   0  0  0  0  0  0  0  0  0  0  0  0
    8.3772    1.3019   -0.4731 C   0  0  0  0  0  0  0  0  0  0  0  0
    9.0999    0.2323    0.0394 C   0  0  0  0  0  0  0  0  0  0  0  0
   10.4926    0.2827    0.0867 C   0  0  0  0  0  0  0  0  0  0  0  0
   11.1504    1.3684   -0.3631 N   0  0  0  0  0  0  0  0  0  0  0  0
   10.4631    2.4324   -0.8689 C   0  0  0  0  0  0  0  0  0  0  0  0
    9.0953    2.3841   -0.9131 C   0  0  0  0  0  0  0  0  0  0  0  0
    8.4015    3.4547   -1.4109 F   0  0  0  0  0  0  0  0  0  0  0  0
   -4.2447    0.5824   -0.4969 C   0  0  0  0  0  0  0  0  0  0  0  0
   -5.0614    0.0420   -1.3492 O   0  0  0  0  0  0  0  0  0  0  0  0
   -4.4506    1.8925    0.0057 N   0  0  0  0  0  0  0  0  0  0  0  0
   -5.4312    2.8786   -0.2565 C   0  0  1  0  0  0  0  0  0  0  0  0
   -6.8974    2.3739   -0.1821 C   0  0  0  0  0  0  0  0  0  0  0  0
   -7.3126    2.6344    1.2335 C   0  0  0  0  0  0  0  0  0  0  0  0
   -6.6431    3.9841    1.5622 C   0  0  1  0  0  0  0  0  0  0  0  0
   -6.3159    3.9771    2.9170 O   0  0  0  0  0  0  0  0  0  0  0  0
   -5.3915    4.0394    0.6803 C   0  0  0  0  0  0  0  0  0  0  0  0
   -2.9960   -3.5275   -1.3147 H   0  0  0  0  0  0  0  0  0  0  0  0
   -3.3128   -4.5052    0.1481 H   0  0  0  0  0  0  0  0  0  0  0  0
   -2.6576   -5.3524   -1.2531 H   0  0  0  0  0  0  0  0  0  0  0  0
   -1.5234   -5.7143    1.3634 H   0  0  0  0  0  0  0  0  0  0  0  0
   -1.3141   -6.3056   -0.3018 H   0  0  0  0  0  0  0  0  0  0  0  0
    0.1818   -5.6748    0.6020 H   0  0  0  0  0  0  0  0  0  0  0  0
   -0.2684   -4.7748   -1.9667 H   0  0  0  0  0  0  0  0  0  0  0  0
    0.7247   -3.8197   -0.7702 H   0  0  0  0  0  0  0  0  0  0  0  0
   -0.5396   -2.9562   -1.7688 H   0  0  0  0  0  0  0  0  0  0  0  0
   -1.9538   -3.5684    1.7312 H   0  0  0  0  0  0  0  0  0  0  0  0
   -0.2698   -3.1797    1.4323 H   0  0  0  0  0  0  0  0  0  0  0  0
   -3.8301   -2.1749    0.5409 H   0  0  0  0  0  0  0  0  0  0  0  0
   -1.5165    1.1969   -0.5337 H   0  0  0  0  0  0  0  0  0  0  0  0
    0.4256    1.2704   -0.7311 H   0  0  0  0  0  0  0  0  0  0  0  0
    3.4572   -0.9691    0.4051 H   0  0  0  0  0  0  0  0  0  0  0  0
    6.5304   -0.6092    0.3330 H   0  0  0  0  0  0  0  0  0  0  0  0
    8.5788   -0.6291    0.4057 H   0  0  0  0  0  0  0  0  0  0  0  0
   11.1167   -0.5403    0.4890 H   0  0  0  0  0  0  0  0  0  0  0  0
   11.0211    3.2785   -1.2155 H   0  0  0  0  0  0  0  0  0  0  0  0
   -3.6679    2.2246    0.7006 H   0  0  0  0  0  0  0  0  0  0  0  0
   -5.3203    3.1700   -1.3648 H   0  0  0  0  0  0  0  0  0  0  0  0
   -7.4954    2.9769   -0.9350 H   0  0  0  0  0  0  0  0  0  0  0  0
   -6.9136    1.3228   -0.4539 H   0  0  0  0  0  0  0  0  0  0  0  0
   -8.3905    2.6481    1.3963 H   0  0  0  0  0  0  0  0  0  0  0  0
   -6.8225    1.8497    1.8542 H   0  0  0  0  0  0  0  0  0  0  0  0
   -7.3255    4.8303    1.3628 H   0  0  0  0  0  0  0  0  0  0  0  0
   -5.4117    4.3500    3.1266 H   0  0  0  0  0  0  0  0  0  0  0  0
   -4.4538    4.0953    1.3038 H   0  0  0  0  0  0  0  0  0  0  0  0
   -5.4228    5.0118    0.0988 H   0  0  0  0  0  0  0  0  0  0  0  0
  1  2  1  0
  2  3  1  0
  2  4  1  0
  2  5  1  0
  5  6  1  0
  6  7  1  0
  7  8  2  0
  8  9  1  0
  9 10  2  0
 10 11  1  0
 11 12  2  0
 11 13  1  0
 13 14  1  0
 14 15  2  0
 15 16  1  0
 16 17  1  0
 17 18  1  0
 18 19  2  0
 19 20  1  0
 20 21  1  0
 18 22  1  0
 22 23  2  0
 23 24  1  0
 24 25  2  0
 25 26  1  0
 26 27  2  0
 27 28  1  0
  8 29  1  0
 29 30  2  0
 29 31  1  0
 31 32  1  0
 32 33  1  0
 33 34  1  0
 34 35  1  0
 35 36  1  0
 35 37  1  0
 10  6  1  0
 21 14  1  0
 27 22  1  0
 37 32  1  0
 20 16  2  0
  1 38  1  0
  1 39  1  0
  1 40  1  0
  3 41  1  0
  3 42  1  0
  3 43  1  0
  4 44  1  0
  4 45  1  0
  4 46  1  0
  5 47  1  0
  5 48  1  0
  7 49  1  0
  9 50  1  0
 13 51  1  0
 15 52  1  0
 17 53  1  0
 23 54  1  0
 24 55  1  0
 26 56  1  0
 31 57  1  0
 32 58  1  6
 33 59  1  0
 33 60  1  0
 34 61  1  0
 34 62  1  0
 35 63  1  1
 36 64  1  0
 37 65  1  0
 37 66  1  0
M  END
$$$$
[H]C1=C=C(C([H])([H])[C@]2([H])N(c3c([H])c([H])c([H])c(Cl)c3[H])C([H])([H])C([H])([H])C2([H])[H])N(C([H])([H])c2c([H])c([H])c(S(=O)(=O)C([H])([H])[H])c([H])c2[H])N=C1C(=O)N([H])[H]
     RDKit          3D

 58 61  0  0  0  0  0  0  0  0999 V2000
    1.8814    5.1220   -2.5971 N   0  0  0  0  0  0  0  0  0  0  0  0
    2.2537    3.9943   -1.8192 C   0  0  0  0  0  0  0  0  0  0  0  0
    3.4619    3.9479   -1.4379 O   0  0  0  0  0  0  0  0  0  0  0  0
    1.3131    2.9405   -1.4696 C   0  0  0  0  0  0  0  0  0  0  0  0
   -0.0618    3.0516   -1.9383 C   0  0  0  0  0  0  0  0  0  0  0  0
   -0.8700    2.0566   -1.6986 C   0  0  0  0  0  0  0  0  0  0  0  0
   -0.5313    1.0757   -0.9040 C   0  0  0  0  0  0  0  0  0  0  0  0
   -1.6082    0.0983   -0.4982 C   0  0  0  0  0  0  0  0  0  0  0  0
   -2.9011    0.3940   -1.1602 C   0  0  1  0  0  0  0  0  0  0  0  0
   -2.8259    0.3024   -2.6681 C   0  0  0  0  0  0  0  0  0  0  0  0
   -4.0973   -0.4522   -3.0852 C   0  0  0  0  0  0  0  0  0  0  0  0
   -5.0127   -0.0899   -1.9013 C   0  0  0  0  0  0  0  0  0  0  0  0
   -4.0390   -0.3818   -0.8109 N   0  0  0  0  0  0  0  0  0  0  0  0
   -4.4048   -1.2598    0.2165 C   0  0  0  0  0  0  0  0  0  0  0  0
   -3.5426   -2.0401    0.9151 C   0  0  0  0  0  0  0  0  0  0  0  0
   -3.9573   -2.8858    1.9519 C   0  0  0  0  0  0  0  0  0  0  0  0
   -5.2834   -2.9513    2.2997 C   0  0  0  0  0  0  0  0  0  0  0  0
   -6.1841   -2.1778    1.6162 C   0  0  0  0  0  0  0  0  0  0  0  0
   -7.8731   -2.2650    2.0630 Cl  0  0  0  0  0  0  0  0  0  0  0  0
   -5.7503   -1.3568    0.6037 C   0  0  0  0  0  0  0  0  0  0  0  0
    0.7951    0.9230   -0.4234 N   0  0  0  0  0  0  0  0  0  0  0  0
    1.1318   -0.2106    0.3509 C   0  0  0  0  0  0  0  0  0  0  0  0
    2.5284   -0.2716    0.7930 C   0  0  0  0  0  0  0  0  0  0  0  0
    3.0027    0.2523    1.9792 C   0  0  0  0  0  0  0  0  0  0  0  0
    4.3460    0.1580    2.3365 C   0  0  0  0  0  0  0  0  0  0  0  0
    5.2213   -0.4773    1.4774 C   0  0  0  0  0  0  0  0  0  0  0  0
    4.7809   -1.0162    0.2762 C   0  0  0  0  0  0  0  0  0  0  0  0
    3.4466   -0.8951   -0.0264 C   0  0  0  0  0  0  0  0  0  0  0  0
    6.9111   -0.6124    1.8948 S   0  0  0  0  0  0  0  0  0  0  0  0
    7.2003   -2.1225    2.8140 C   0  0  0  0  0  0  0  0  0  0  0  0
    7.3382    0.5216    2.7783 O   0  0  0  0  0  0  0  0  0  0  0  0
    7.7881   -0.6579    0.6762 O   0  0  0  0  0  0  0  0  0  0  0  0
    1.7133    1.9204   -0.7461 N   0  0  0  0  0  0  0  0  0  0  0  0
    1.4378    4.9846   -3.5157 H   0  0  0  0  0  0  0  0  0  0  0  0
    2.0559    6.0687   -2.2404 H   0  0  0  0  0  0  0  0  0  0  0  0
   -0.4509    3.9035   -2.4698 H   0  0  0  0  0  0  0  0  0  0  0  0
   -1.2111   -0.9219   -0.7503 H   0  0  0  0  0  0  0  0  0  0  0  0
   -1.7159    0.1496    0.5930 H   0  0  0  0  0  0  0  0  0  0  0  0
   -3.1312    1.5097   -0.9781 H   0  0  0  0  0  0  0  0  0  0  0  0
   -1.9202   -0.1756   -3.0366 H   0  0  0  0  0  0  0  0  0  0  0  0
   -2.9126    1.2912   -3.1613 H   0  0  0  0  0  0  0  0  0  0  0  0
   -3.9057   -1.5225   -3.1462 H   0  0  0  0  0  0  0  0  0  0  0  0
   -4.5101   -0.0828   -4.0231 H   0  0  0  0  0  0  0  0  0  0  0  0
   -5.1682    0.9943   -1.9585 H   0  0  0  0  0  0  0  0  0  0  0  0
   -5.8897   -0.7209   -1.8678 H   0  0  0  0  0  0  0  0  0  0  0  0
   -2.5040   -2.0685    0.7180 H   0  0  0  0  0  0  0  0  0  0  0  0
   -3.1993   -3.4870    2.4716 H   0  0  0  0  0  0  0  0  0  0  0  0
   -5.5721   -3.6193    3.1108 H   0  0  0  0  0  0  0  0  0  0  0  0
   -6.4477   -0.7385    0.0598 H   0  0  0  0  0  0  0  0  0  0  0  0
    0.5062   -0.1953    1.2696 H   0  0  0  0  0  0  0  0  0  0  0  0
    0.9299   -1.1244   -0.2629 H   0  0  0  0  0  0  0  0  0  0  0  0
    2.3133    0.7449    2.6409 H   0  0  0  0  0  0  0  0  0  0  0  0
    4.7134    0.5699    3.2669 H   0  0  0  0  0  0  0  0  0  0  0  0
    5.5070   -1.5071   -0.3676 H   0  0  0  0  0  0  0  0  0  0  0  0
    3.1071   -1.3242   -0.9781 H   0  0  0  0  0  0  0  0  0  0  0  0
    6.5204   -2.1803    3.6944 H   0  0  0  0  0  0  0  0  0  0  0  0
    8.2567   -2.1631    3.1158 H   0  0  0  0  0  0  0  0  0  0  0  0
    7.0198   -3.0192    2.1701 H   0  0  0  0  0  0  0  0  0  0  0  0
  1  2  1  0
  2  3  2  0
  2  4  1  0
  4  5  1  0
  5  6  2  0
  6  7  2  0
  7  8  1  0
  8  9  1  0
  9 10  1  0
 10 11  1  0
 11 12  1  0
 12 13  1  0
 13 14  1  0
 14 15  2  0
 15 16  1  0
 16 17  2  0
 17 18  1  0
 18 19  1  0
 18 20  2  0
  7 21  1  0
 21 22  1  0
 22 23  1  0
 23 24  2  0
 24 25  1  0
 25 26  2  0
 26 27  1  0
 27 28  2  0
 26 29  1  0
 29 30  1  0
 29 31  2  0
 29 32  2  0
 21 33  1  0
 33  4  2  0
 13  9  1  0
 20 14  1  0
 28 23  1  0
  1 34  1  0
  1 35  1  0
  5 36  1  0
  8 37  1  0
  8 38  1  0
  9 39  1  6
 10 40  1  0
 10 41  1  0
 11 42  1  0
 11 43  1  0
 12 44  1  0
 12 45  1  0
 15 46  1  0
 16 47  1  0
 17 48  1  0
 20 49  1  0
 22 50  1  0
 22 51  1  0
 24 52  1  0
 25 53  1  0
 27 54  1  0
 28 55  1  0
 30 56  1  0
 30 57  1  0
 30 58  1  0
M  END
$$$$
[H]c1nc([H])c2c(-c3c([H])c([H])c([H])c(C([H])([H])[H])c3[H])c([H])c(-c3nn(C([H])([H])[H])c4c3C([H])([H])C([H])([H])C4([H])[H])nc2c1[H]
     RDKit          3D

 46 50  0  0  0  0  0  0  0  0999 V2000
    5.6961   -1.7310    1.0015 C   0  0  0  0  0  0  0  0  0  0  0  0
    4.5340   -1.5829    0.0527 C   0  0  0  0  0  0  0  0  0  0  0  0
    4.4034   -2.3900   -1.0488 C   0  0  0  0  0  0  0  0  0  0  0  0
    3.3369   -2.2391   -1.9013 C   0  0  0  0  0  0  0  0  0  0  0  0
    2.3771   -1.2734   -1.6661 C   0  0  0  0  0  0  0  0  0  0  0  0
    2.4698   -0.4253   -0.5518 C   0  0  0  0  0  0  0  0  0  0  0  0
    3.5625   -0.6354    0.2546 C   0  0  0  0  0  0  0  0  0  0  0  0
    1.4185    0.5532   -0.3083 C   0  0  0  0  0  0  0  0  0  0  0  0
    0.0941    0.1385   -0.1654 C   0  0  0  0  0  0  0  0  0  0  0  0
   -0.8855    1.0581    0.1007 C   0  0  0  0  0  0  0  0  0  0  0  0
   -0.5736    2.3779    0.2268 N   0  0  0  0  0  0  0  0  0  0  0  0
    0.6704    2.8150    0.0979 C   0  0  0  0  0  0  0  0  0  0  0  0
    0.9046    4.1699    0.2293 C   0  0  0  0  0  0  0  0  0  0  0  0
    2.2015    4.5993    0.0795 C   0  0  0  0  0  0  0  0  0  0  0  0
    3.1752    3.7308   -0.1811 N   0  0  0  0  0  0  0  0  0  0  0  0
    2.9505    2.3993   -0.3108 C   0  0  0  0  0  0  0  0  0  0  0  0
    1.6814    1.8926   -0.1736 C   0  0  0  0  0  0  0  0  0  0  0  0
   -2.2863    0.6633    0.2592 C   0  0  0  0  0  0  0  0  0  0  0  0
   -3.3038    1.5269    0.5256 N   0  0  0  0  0  0  0  0  0  0  0  0
   -4.4561    0.8947    0.6159 N   0  0  0  0  0  0  0  0  0  0  0  0
   -5.7146    1.5620    0.8927 C   0  0  0  0  0  0  0  0  0  0  0  0
   -4.2257   -0.4285    0.4075 C   0  0  0  0  0  0  0  0  0  0  0  0
   -4.9367   -1.7438    0.3435 C   0  0  0  0  0  0  0  0  0  0  0  0
   -3.8814   -2.7037   -0.1379 C   0  0  0  0  0  0  0  0  0  0  0  0
   -2.5565   -2.0119   -0.0536 C   0  0  0  0  0  0  0  0  0  0  0  0
   -2.8797   -0.5778    0.1853 C   0  0  0  0  0  0  0  0  0  0  0  0
    6.2583   -2.6153    0.7038 H   0  0  0  0  0  0  0  0  0  0  0  0
    5.2769   -1.7875    2.0299 H   0  0  0  0  0  0  0  0  0  0  0  0
    6.3067   -0.7861    0.9882 H   0  0  0  0  0  0  0  0  0  0  0  0
    5.1484   -3.1401   -1.2320 H   0  0  0  0  0  0  0  0  0  0  0  0
    3.2684   -2.8935   -2.7582 H   0  0  0  0  0  0  0  0  0  0  0  0
    1.5544   -1.1607   -2.3282 H   0  0  0  0  0  0  0  0  0  0  0  0
    3.6709    0.0073    1.1361 H   0  0  0  0  0  0  0  0  0  0  0  0
   -0.1617   -0.8908   -0.2611 H   0  0  0  0  0  0  0  0  0  0  0  0
    0.0821    4.8503    0.4426 H   0  0  0  0  0  0  0  0  0  0  0  0
    2.3711    5.6655    0.1855 H   0  0  0  0  0  0  0  0  0  0  0  0
    3.7628    1.7394   -0.5343 H   0  0  0  0  0  0  0  0  0  0  0  0
   -5.8554    1.7119    1.9998 H   0  0  0  0  0  0  0  0  0  0  0  0
   -5.7392    2.5846    0.4538 H   0  0  0  0  0  0  0  0  0  0  0  0
   -6.5763    1.0222    0.4503 H   0  0  0  0  0  0  0  0  0  0  0  0
   -5.3192   -2.0257    1.3583 H   0  0  0  0  0  0  0  0  0  0  0  0
   -5.7830   -1.6856   -0.3721 H   0  0  0  0  0  0  0  0  0  0  0  0
   -3.8995   -3.6627    0.4403 H   0  0  0  0  0  0  0  0  0  0  0  0
   -4.1241   -2.9657   -1.1992 H   0  0  0  0  0  0  0  0  0  0  0  0
   -2.0362   -2.1429   -1.0485 H   0  0  0  0  0  0  0  0  0  0  0  0
   -1.9816   -2.4635    0.7711 H   0  0  0  0  0  0  0  0  0  0  0  0
  1  2  1  0
  2  3  2  0
  3  4  1  0
  4  5  2  0
  5  6  1  0
  6  7  2  0
  6  8  1  0
  8  9  2  0
  9 10  1  0
 10 11  2  0
 11 12  1  0
 12 13  2  0
 13 14  1  0
 14 15  2  0
 15 16  1  0
 16 17  2  0
 10 18  1  0
 18 19  2  0
 19 20  1  0
 20 21  1  0
 20 22  1  0
 22 23  1  0
 23 24  1  0
 24 25  1  0
 25 26  1  0
  7  2  1  0
 17  8  1  0
 26 18  1  0
 17 12  1  0
 26 22  2  0
  1 27  1  0
  1 28  1  0
  1 29  1  0
  3 30  1  0
  4 31  1  0
  5 32  1  0
  7 33  1  0
  9 34  1  0
 13 35  1  0
 14 36  1  0
 16 37  1  0
 21 38  1  0
 21 39  1  0
 21 40  1  0
 23 41  1  0
 23 42  1  0
 24 43  1  0
 24 44  1  0
 25 45  1  0
 25 46  1  0
M  END
$$$$
[H]c1nc([H])c([H])c(-c2c([H])c3c4c(c=3c(N([H])[H])nn2C#N)C([H])([H])N(C(=S)N([H])C([H])([H])C([H])([H])[H])C([H])([H])C4([H])[H])c1[H]
     RDKit          3D

 46 49  0  0  0  0  0  0  0  0999 V2000
   -7.2822    0.2045   -0.4649 C   0  0  0  0  0  0  0  0  0  0  0  0
   -6.1618    0.7146   -1.3325 C   0  0  0  0  0  0  0  0  0  0  0  0
   -4.8529    0.2826   -0.9053 N   0  0  0  0  0  0  0  0  0  0  0  0
   -4.2388    0.7246    0.2822 C   0  0  0  0  0  0  0  0  0  0  0  0
   -5.1025    1.7953    1.2027 S   0  0  0  0  0  0  0  0  0  0  0  0
   -2.9384    0.3095    0.7241 N   0  0  0  0  0  0  0  0  0  0  0  0
   -2.3972    0.8177    1.9572 C   0  0  0  0  0  0  0  0  0  0  0  0
   -0.9866    1.3080    1.8411 C   0  0  0  0  0  0  0  0  0  0  0  0
   -0.1839    0.4446    0.9840 C   0  0  0  0  0  0  0  0  0  0  0  0
   -0.7503   -0.4308    0.1069 C   0  0  0  0  0  0  0  0  0  0  0  0
   -2.2102   -0.6288   -0.1041 C   0  0  0  0  0  0  0  0  0  0  0  0
    0.5174   -0.8312   -0.2887 C   0  0  0  0  0  0  0  0  0  0  0  0
    1.1508   -1.6960   -1.1518 C   0  0  0  0  0  0  0  0  0  0  0  0
    0.3849   -2.0484   -2.2958 N   0  0  0  0  0  0  0  0  0  0  0  0
    2.4005   -2.2327   -1.0280 N   0  0  0  0  0  0  0  0  0  0  0  0
    3.4198   -1.6896   -0.3453 N   0  0  0  0  0  0  0  0  0  0  0  0
    4.5961   -2.4316   -0.2192 C   0  0  0  0  0  0  0  0  0  0  0  0
    5.5736   -3.0664   -0.0993 N   0  0  0  0  0  0  0  0  0  0  0  0
    3.4873   -0.4810    0.2666 C   0  0  0  0  0  0  0  0  0  0  0  0
    2.4340    0.2414    0.7857 C   0  0  0  0  0  0  0  0  0  0  0  0
    1.0887    0.0356    0.5796 C   0  0  0  0  0  0  0  0  0  0  0  0
    4.8312    0.0710    0.3585 C   0  0  0  0  0  0  0  0  0  0  0  0
    5.6805   -0.1722    1.4175 C   0  0  0  0  0  0  0  0  0  0  0  0
    6.9368    0.4190    1.3670 C   0  0  0  0  0  0  0  0  0  0  0  0
    7.2827    1.1893    0.3200 N   0  0  0  0  0  0  0  0  0  0  0  0
    6.4748    1.4399   -0.7198 C   0  0  0  0  0  0  0  0  0  0  0  0
    5.2252    0.8760   -0.7106 C   0  0  0  0  0  0  0  0  0  0  0  0
   -7.1093   -0.8393   -0.1288 H   0  0  0  0  0  0  0  0  0  0  0  0
   -7.5450    0.8918    0.3399 H   0  0  0  0  0  0  0  0  0  0  0  0
   -8.1828    0.1464   -1.1296 H   0  0  0  0  0  0  0  0  0  0  0  0
   -6.3380    0.4724   -2.4011 H   0  0  0  0  0  0  0  0  0  0  0  0
   -6.1769    1.8302   -1.2658 H   0  0  0  0  0  0  0  0  0  0  0  0
   -4.3534   -0.3916   -1.5172 H   0  0  0  0  0  0  0  0  0  0  0  0
   -2.4013    0.0354    2.7662 H   0  0  0  0  0  0  0  0  0  0  0  0
   -3.0112    1.6969    2.2776 H   0  0  0  0  0  0  0  0  0  0  0  0
   -0.5811    1.3814    2.8872 H   0  0  0  0  0  0  0  0  0  0  0  0
   -1.0027    2.3548    1.4571 H   0  0  0  0  0  0  0  0  0  0  0  0
   -2.5092   -1.6366    0.2548 H   0  0  0  0  0  0  0  0  0  0  0  0
   -2.3978   -0.4660   -1.1855 H   0  0  0  0  0  0  0  0  0  0  0  0
    0.4504   -1.3875   -3.1155 H   0  0  0  0  0  0  0  0  0  0  0  0
   -0.2067   -2.8919   -2.3538 H   0  0  0  0  0  0  0  0  0  0  0  0
    2.6706    1.0669    1.4252 H   0  0  0  0  0  0  0  0  0  0  0  0
    5.3595   -0.7954    2.2314 H   0  0  0  0  0  0  0  0  0  0  0  0
    7.6266    0.2317    2.2064 H   0  0  0  0  0  0  0  0  0  0  0  0
    6.7624    2.0639   -1.5607 H   0  0  0  0  0  0  0  0  0  0  0  0
    4.5664    1.0718   -1.5464 H   0  0  0  0  0  0  0  0  0  0  0  0
  1  2  1  0
  2  3  1  0
  3  4  1  0
  4  5  2  0
  4  6  1  0
  6  7  1  0
  7  8  1  0
  8  9  1  0
  9 10  2  0
 10 11  1  0
 10 12  1  0
 12 13  1  0
 13 14  1  0
 13 15  2  0
 15 16  1  0
 16 17  1  0
 17 18  3  0
 16 19  1  0
 19 20  2  0
 20 21  1  0
 19 22  1  0
 22 23  2  0
 23 24  1  0
 24 25  2  0
 25 26  1  0
 26 27  2  0
 11  6  1  0
 21 12  2  0
 27 22  1  0
 21  9  1  0
  1 28  1  0
  1 29  1  0
  1 30  1  0
  2 31  1  0
  2 32  1  0
  3 33  1  0
  7 34  1  0
  7 35  1  0
  8 36  1  0
  8 37  1  0
 11 38  1  0
 11 39  1  0
 14 40  1  0
 14 41  1  0
 20 42  1  0
 23 43  1  0
 24 44  1  0
 26 45  1  0
 27 46  1  0
M  END
$$$$
[H]O[C@]1([H])C([H])([H])C([H])([H])C([H])([H])[C@@]([H])(N([H])C(=O)C([H])(N([H])c2nc3c([H])c([H])c(-c4nc([H])nc([H])c4C([H])([H])[H])c([H])c3s2)C([H])([H])C([H])([H])C([H])(C([H])([H])[H])C([H])([H])[H])C1([H])[H]
     RDKit          3D

 66 69  0  0  0  0  0  0  0  0999 V2000
   -4.6308    3.4465    0.2475 C   0  0  0  0  0  0  0  0  0  0  0  0
   -3.4175    3.0915   -0.5693 C   0  0  0  0  0  0  0  0  0  0  0  0
   -2.9121    4.3969   -1.2011 C   0  0  0  0  0  0  0  0  0  0  0  0
   -2.3190    2.5709    0.3462 C   0  0  0  0  0  0  0  0  0  0  0  0
   -1.0809    2.1959   -0.4045 C   0  0  0  0  0  0  0  0  0  0  0  0
   -1.2657    1.0631   -1.3708 C   0  0  0  0  0  0  0  0  0  0  0  0
   -0.0469    0.7881   -2.1003 N   0  0  0  0  0  0  0  0  0  0  0  0
    1.2063    0.4933   -1.4975 C   0  0  0  0  0  0  0  0  0  0  0  0
    2.3274    0.2399   -2.1675 N   0  0  0  0  0  0  0  0  0  0  0  0
    3.4239   -0.0085   -1.5336 C   0  0  0  0  0  0  0  0  0  0  0  0
    4.6707   -0.2853   -2.1283 C   0  0  0  0  0  0  0  0  0  0  0  0
    5.7563   -0.5263   -1.3451 C   0  0  0  0  0  0  0  0  0  0  0  0
    5.7536   -0.5254    0.0295 C   0  0  0  0  0  0  0  0  0  0  0  0
    4.5218   -0.2528    0.6317 C   0  0  0  0  0  0  0  0  0  0  0  0
    3.3969   -0.0033   -0.1649 C   0  0  0  0  0  0  0  0  0  0  0  0
    1.7523    0.3684    0.1131 S   0  0  0  0  0  0  0  0  0  0  0  0
    6.8939   -0.7593    0.8830 C   0  0  0  0  0  0  0  0  0  0  0  0
    6.8114   -1.6329    1.9078 N   0  0  0  0  0  0  0  0  0  0  0  0
    7.8787   -1.8518    2.7303 C   0  0  0  0  0  0  0  0  0  0  0  0
    9.0344   -1.1961    2.5293 N   0  0  0  0  0  0  0  0  0  0  0  0
    9.1734   -0.3200    1.5311 C   0  0  0  0  0  0  0  0  0  0  0  0
    8.0762   -0.0950    0.6864 C   0  0  0  0  0  0  0  0  0  0  0  0
    8.2864    0.8947   -0.3907 C   0  0  0  0  0  0  0  0  0  0  0  0
   -1.7266   -0.1918   -0.7639 C   0  0  0  0  0  0  0  0  0  0  0  0
   -0.8888   -1.0708   -0.3879 O   0  0  0  0  0  0  0  0  0  0  0  0
   -3.0908   -0.5075   -0.5623 N   0  0  0  0  0  0  0  0  0  0  0  0
   -3.5010   -1.7638    0.0508 C   0  0  2  0  0  0  0  0  0  0  0  0
   -4.1264   -2.6467   -1.0262 C   0  0  0  0  0  0  0  0  0  0  0  0
   -4.4863   -3.9401   -0.3226 C   0  0  0  0  0  0  0  0  0  0  0  0
   -5.6723   -3.6737    0.5605 C   0  0  0  0  0  0  0  0  0  0  0  0
   -5.7284   -2.2770    1.0971 C   0  0  1  0  0  0  0  0  0  0  0  0
   -6.2890   -2.3354    2.3733 O   0  0  0  0  0  0  0  0  0  0  0  0
   -4.3952   -1.5984    1.2258 C   0  0  0  0  0  0  0  0  0  0  0  0
   -4.8427    2.6262    0.9678 H   0  0  0  0  0  0  0  0  0  0  0  0
   -5.5365    3.5329   -0.3902 H   0  0  0  0  0  0  0  0  0  0  0  0
   -4.4691    4.3773    0.8298 H   0  0  0  0  0  0  0  0  0  0  0  0
   -3.6305    2.4187   -1.4096 H   0  0  0  0  0  0  0  0  0  0  0  0
   -2.4359    5.0241   -0.4173 H   0  0  0  0  0  0  0  0  0  0  0  0
   -2.1201    4.1735   -1.9458 H   0  0  0  0  0  0  0  0  0  0  0  0
   -3.7384    4.9692   -1.6567 H   0  0  0  0  0  0  0  0  0  0  0  0
   -2.0975    3.2918    1.1341 H   0  0  0  0  0  0  0  0  0  0  0  0
   -2.7127    1.6387    0.8304 H   0  0  0  0  0  0  0  0  0  0  0  0
   -0.7021    3.1135   -0.9132 H   0  0  0  0  0  0  0  0  0  0  0  0
   -0.3105    1.9132    0.3473 H   0  0  0  0  0  0  0  0  0  0  0  0
   -2.0188    1.3773   -2.1531 H   0  0  0  0  0  0  0  0  0  0  0  0
   -0.0541    0.7981   -3.1605 H   0  0  0  0  0  0  0  0  0  0  0  0
    4.7987   -0.3141   -3.2055 H   0  0  0  0  0  0  0  0  0  0  0  0
    6.7380   -0.7532   -1.7893 H   0  0  0  0  0  0  0  0  0  0  0  0
    4.3837   -0.2232    1.6796 H   0  0  0  0  0  0  0  0  0  0  0  0
    7.7447   -2.5635    3.5314 H   0  0  0  0  0  0  0  0  0  0  0  0
   10.1171    0.1813    1.4095 H   0  0  0  0  0  0  0  0  0  0  0  0
    8.7281    0.4380   -1.3130 H   0  0  0  0  0  0  0  0  0  0  0  0
    9.0011    1.6837   -0.0001 H   0  0  0  0  0  0  0  0  0  0  0  0
    7.3643    1.4399   -0.6522 H   0  0  0  0  0  0  0  0  0  0  0  0
   -3.8486    0.1154   -0.8451 H   0  0  0  0  0  0  0  0  0  0  0  0
   -2.5835   -2.3007    0.3611 H   0  0  0  0  0  0  0  0  0  0  0  0
   -5.0367   -2.2082   -1.4602 H   0  0  0  0  0  0  0  0  0  0  0  0
   -3.3313   -2.8686   -1.7614 H   0  0  0  0  0  0  0  0  0  0  0  0
   -3.6464   -4.2416    0.3414 H   0  0  0  0  0  0  0  0  0  0  0  0
   -4.6619   -4.7174   -1.0713 H   0  0  0  0  0  0  0  0  0  0  0  0
   -5.7098   -4.4500    1.3432 H   0  0  0  0  0  0  0  0  0  0  0  0
   -6.5809   -3.8319   -0.0827 H   0  0  0  0  0  0  0  0  0  0  0  0
   -6.4277   -1.6445    0.4841 H   0  0  0  0  0  0  0  0  0  0  0  0
   -7.2091   -2.7282    2.2843 H   0  0  0  0  0  0  0  0  0  0  0  0
   -4.6314   -0.4937    1.3078 H   0  0  0  0  0  0  0  0  0  0  0  0
   -3.9256   -1.8617    2.1953 H   0  0  0  0  0  0  0  0  0  0  0  0
  1  2  1  0
  2  3  1  0
  2  4  1  0
  4  5  1  0
  5  6  1  0
  6  7  1  0
  7  8  1  0
  8  9  2  0
  9 10  1  0
 10 11  2  0
 11 12  1  0
 12 13  2  0
 13 14  1  0
 14 15  2  0
 15 16  1  0
 13 17  1  0
 17 18  2  0
 18 19  1  0
 19 20  2  0
 20 21  1  0
 21 22  2  0
 22 23  1  0
  6 24  1  0
 24 25  2  0
 24 26  1  0
 26 27  1  0
 27 28  1  0
 28 29  1  0
 29 30  1  0
 30 31  1  0
 31 32  1  0
 31 33  1  0
 16  8  1  0
 22 17  1  0
 33 27  1  0
 15 10  1  0
  1 34  1  0
  1 35  1  0
  1 36  1  0
  2 37  1  0
  3 38  1  0
  3 39  1  0
  3 40  1  0
  4 41  1  0
  4 42  1  0
  5 43  1  0
  5 44  1  0
  6 45  1  0
  7 46  1  0
 11 47  1  0
 12 48  1  0
 14 49  1  0
 19 50  1  0
 21 51  1  0
 23 52  1  0
 23 53  1  0
 23 54  1  0
 26 55  1  0
 27 56  1  1
 28 57  1  0
 28 58  1  0
 29 59  1  0
 29 60  1  0
 30 61  1  0
 30 62  1  0
 31 63  1  6
 32 64  1  0
 33 65  1  0
 33 66  1  0
M  END
$$$$
[H]c1c([H])c(O[C@@]2([H])C(=O)N(C(=O)c3c([H])c(C([H])([H])[H])c(C([H])([H])[H])c([H])c3C([H])([H])[H])C([H])([H])C2([H])[H])c(F)c([H])c1F
     RDKit          3D

 45 47  0  0  0  0  0  0  0  0999 V2000
    4.8450    0.0627    2.4993 C   0  0  0  0  0  0  0  0  0  0  0  0
    3.9788    0.1050    1.2932 C   0  0  0  0  0  0  0  0  0  0  0  0
    3.4232    1.3037    0.8730 C   0  0  0  0  0  0  0  0  0  0  0  0
    2.6167    1.3606   -0.2447 C   0  0  0  0  0  0  0  0  0  0  0  0
    2.0065    2.6296   -0.7205 C   0  0  0  0  0  0  0  0  0  0  0  0
    2.3536    0.1952   -0.9665 C   0  0  0  0  0  0  0  0  0  0  0  0
    2.9192   -0.9641   -0.5204 C   0  0  0  0  0  0  0  0  0  0  0  0
    3.7311   -1.0548    0.5947 C   0  0  0  0  0  0  0  0  0  0  0  0
    4.3210   -2.3690    1.0283 C   0  0  0  0  0  0  0  0  0  0  0  0
    1.5101    0.2071   -2.1498 C   0  0  0  0  0  0  0  0  0  0  0  0
    2.0764    0.4056   -3.2646 O   0  0  0  0  0  0  0  0  0  0  0  0
    0.1074    0.0032   -2.0495 N   0  0  0  0  0  0  0  0  0  0  0  0
   -0.8509   -0.0078   -3.1664 C   0  0  0  0  0  0  0  0  0  0  0  0
   -1.9573   -0.8712   -2.5540 C   0  0  0  0  0  0  0  0  0  0  0  0
   -2.0487   -0.1934   -1.1675 C   0  0  1  0  0  0  0  0  0  0  0  0
   -2.8068   -0.9167   -0.2863 O   0  0  0  0  0  0  0  0  0  0  0  0
   -3.9005   -0.4599    0.3665 C   0  0  0  0  0  0  0  0  0  0  0  0
   -4.3763    0.8098    0.2089 C   0  0  0  0  0  0  0  0  0  0  0  0
   -5.5004    1.2740    0.8820 C   0  0  0  0  0  0  0  0  0  0  0  0
   -6.1621    0.4420    1.7340 C   0  0  0  0  0  0  0  0  0  0  0  0
   -7.2510    0.8853    2.3886 F   0  0  0  0  0  0  0  0  0  0  0  0
   -5.7197   -0.8443    1.9241 C   0  0  0  0  0  0  0  0  0  0  0  0
   -4.5865   -1.3004    1.2407 C   0  0  0  0  0  0  0  0  0  0  0  0
   -4.2093   -2.5747    1.4760 F   0  0  0  0  0  0  0  0  0  0  0  0
   -0.5785   -0.2225   -0.8366 C   0  0  0  0  0  0  0  0  0  0  0  0
   -0.0675   -0.4084    0.2834 O   0  0  0  0  0  0  0  0  0  0  0  0
    4.5207   -0.6836    3.2408 H   0  0  0  0  0  0  0  0  0  0  0  0
    4.8666    1.0699    2.9812 H   0  0  0  0  0  0  0  0  0  0  0  0
    5.9127   -0.1404    2.2081 H   0  0  0  0  0  0  0  0  0  0  0  0
    3.5954    2.2320    1.3954 H   0  0  0  0  0  0  0  0  0  0  0  0
    1.1024    2.9108   -0.1370 H   0  0  0  0  0  0  0  0  0  0  0  0
    2.7236    3.4896   -0.6545 H   0  0  0  0  0  0  0  0  0  0  0  0
    1.7003    2.5214   -1.7821 H   0  0  0  0  0  0  0  0  0  0  0  0
    2.7369   -1.8843   -1.0546 H   0  0  0  0  0  0  0  0  0  0  0  0
    4.9206   -2.1908    1.9253 H   0  0  0  0  0  0  0  0  0  0  0  0
    3.5185   -3.1133    1.1422 H   0  0  0  0  0  0  0  0  0  0  0  0
    4.9512   -2.7078    0.1590 H   0  0  0  0  0  0  0  0  0  0  0  0
   -1.2467    0.9917   -3.3474 H   0  0  0  0  0  0  0  0  0  0  0  0
   -0.4177   -0.4696   -4.0644 H   0  0  0  0  0  0  0  0  0  0  0  0
   -2.8931   -0.7874   -3.1010 H   0  0  0  0  0  0  0  0  0  0  0  0
   -1.5509   -1.8874   -2.4674 H   0  0  0  0  0  0  0  0  0  0  0  0
   -2.3282    0.8385   -1.3782 H   0  0  0  0  0  0  0  0  0  0  0  0
   -3.8990    1.5427   -0.4603 H   0  0  0  0  0  0  0  0  0  0  0  0
   -5.8405    2.2767    0.7301 H   0  0  0  0  0  0  0  0  0  0  0  0
   -6.2459   -1.5053    2.6013 H   0  0  0  0  0  0  0  0  0  0  0  0
  1  2  1  0
  2  3  2  0
  3  4  1  0
  4  5  1  0
  4  6  2  0
  6  7  1  0
  7  8  2  0
  8  9  1  0
  6 10  1  0
 10 11  2  0
 10 12  1  0
 12 13  1  0
 13 14  1  0
 14 15  1  0
 15 16  1  0
 16 17  1  0
 17 18  2  0
 18 19  1  0
 19 20  2  0
 20 21  1  0
 20 22  1  0
 22 23  2  0
 23 24  1  0
 15 25  1  0
 25 26  2  0
  8  2  1  0
 25 12  1  0
 23 17  1  0
  1 27  1  0
  1 28  1  0
  1 29  1  0
  3 30  1  0
  5 31  1  0
  5 32  1  0
  5 33  1  0
  7 34  1  0
  9 35  1  0
  9 36  1  0
  9 37  1  0
 13 38  1  0
 13 39  1  0
 14 40  1  0
 14 41  1  0
 15 42  1  6
 18 43  1  0
 19 44  1  0
 22 45  1  0
M  END
$$$$
[H]c1c2c(C([H])([H])[H])c(C(F)(F)F)c([H])c1C([H])([H])N(C(=O)c1c(C([H])([H])C([H])([H])[H])sc3c([H])c(C([H])([H])[H])c([H])c([H])c13)C([H])([H])C([H])([H])[C@@]([H])(C([H])([H])N1C([H])([H])C([H])([H])C(=O)N([H])C([H])([H])[C@@]1([H])C#N)O2
     RDKit          3D

 75 79  0  0  0  0  0  0  0  0999 V2000
    3.2913    0.3319   -3.8069 C   0  0  0  0  0  0  0  0  0  0  0  0
    2.9164    1.0175   -2.4840 C   0  0  0  0  0  0  0  0  0  0  0  0
    3.5265    0.1409   -1.4190 C   0  0  0  0  0  0  0  0  0  0  0  0
    4.3802   -1.3197   -1.6009 S   0  0  0  0  0  0  0  0  0  0  0  0
    4.7507   -1.6333    0.0302 C   0  0  0  0  0  0  0  0  0  0  0  0
    5.4521   -2.6649    0.6833 C   0  0  0  0  0  0  0  0  0  0  0  0
    5.6079   -2.6525    2.0430 C   0  0  0  0  0  0  0  0  0  0  0  0
    6.3283   -3.7051    2.7340 C   0  0  0  0  0  0  0  0  0  0  0  0
    5.0491   -1.5948    2.7104 C   0  0  0  0  0  0  0  0  0  0  0  0
    4.3653   -0.5855    2.0944 C   0  0  0  0  0  0  0  0  0  0  0  0
    4.1907   -0.5762    0.6898 C   0  0  0  0  0  0  0  0  0  0  0  0
    3.5485    0.3533   -0.0687 C   0  0  0  0  0  0  0  0  0  0  0  0
    2.8957    1.5629    0.5180 C   0  0  0  0  0  0  0  0  0  0  0  0
    3.6034    2.6181    0.6309 O   0  0  0  0  0  0  0  0  0  0  0  0
    1.5580    1.6170    0.9584 N   0  0  0  0  0  0  0  0  0  0  0  0
    0.7343    0.4361    0.8174 C   0  0  0  0  0  0  0  0  0  0  0  0
   -0.1506    0.1359   -0.2881 C   0  0  0  0  0  0  0  0  0  0  0  0
   -1.5506   -0.3253   -0.3130 C   0  0  2  0  0  0  0  0  0  0  0  0
   -2.5792    0.8287   -0.3074 O   0  0  0  0  0  0  0  0  0  0  0  0
   -1.8472    2.0540   -0.1070 C   0  0  0  0  0  0  0  0  0  0  0  0
   -1.0712    2.1025    1.0210 C   0  0  0  0  0  0  0  0  0  0  0  0
   -0.2854    3.1949    1.0469 C   0  0  0  0  0  0  0  0  0  0  0  0
   -0.2641    4.2073    0.1315 C   0  0  0  0  0  0  0  0  0  0  0  0
   -1.1068    4.1784   -1.0074 C   0  0  0  0  0  0  0  0  0  0  0  0
   -1.9017    3.0107   -1.0634 C   0  0  0  0  0  0  0  0  0  0  0  0
   -2.8202    2.9540   -2.2624 C   0  0  0  0  0  0  0  0  0  0  0  0
   -1.1386    5.2406   -1.9904 C   0  0  0  0  0  0  0  0  0  0  0  0
   -2.4234    5.7643   -2.0384 F   0  0  0  0  0  0  0  0  0  0  0  0
   -0.6158    4.9545   -3.2156 F   0  0  0  0  0  0  0  0  0  0  0  0
   -0.3569    6.2903   -1.4765 F   0  0  0  0  0  0  0  0  0  0  0  0
    1.1682    2.9193    1.5790 C   0  0  0  0  0  0  0  0  0  0  0  0
   -2.0426   -1.2561    0.7039 C   0  0  0  0  0  0  0  0  0  0  0  0
   -3.3469   -1.7973    0.4762 N   0  0  0  0  0  0  0  0  0  0  0  0
   -3.3344   -2.6262   -0.6571 C   0  0  0  0  0  0  0  0  0  0  0  0
   -3.8480   -4.0394   -0.4041 C   0  0  0  0  0  0  0  0  0  0  0  0
   -5.3498   -3.8980   -0.4085 C   0  0  0  0  0  0  0  0  0  0  0  0
   -5.9738   -4.7180   -1.1251 O   0  0  0  0  0  0  0  0  0  0  0  0
   -6.0758   -2.9213    0.3286 N   0  0  0  0  0  0  0  0  0  0  0  0
   -5.5640   -2.0728    1.3533 C   0  0  0  0  0  0  0  0  0  0  0  0
   -4.4807   -1.1008    0.8610 C   0  0  1  0  0  0  0  0  0  0  0  0
   -4.1976   -0.2503    2.0509 C   0  0  0  0  0  0  0  0  0  0  0  0
   -3.9975    0.4102    2.9907 N   0  0  0  0  0  0  0  0  0  0  0  0
    2.9457   -0.7379   -3.7736 H   0  0  0  0  0  0  0  0  0  0  0  0
    4.3928    0.3265   -3.9628 H   0  0  0  0  0  0  0  0  0  0  0  0
    2.7610    0.8035   -4.6506 H   0  0  0  0  0  0  0  0  0  0  0  0
    1.8325    1.0356   -2.4705 H   0  0  0  0  0  0  0  0  0  0  0  0
    3.3955    2.0148   -2.4971 H   0  0  0  0  0  0  0  0  0  0  0  0
    5.8406   -3.4347    0.0437 H   0  0  0  0  0  0  0  0  0  0  0  0
    5.7519   -4.6557    2.8003 H   0  0  0  0  0  0  0  0  0  0  0  0
    7.3072   -3.9850    2.2602 H   0  0  0  0  0  0  0  0  0  0  0  0
    6.6188   -3.3963    3.7819 H   0  0  0  0  0  0  0  0  0  0  0  0
    5.1456   -1.5374    3.8019 H   0  0  0  0  0  0  0  0  0  0  0  0
    3.9583    0.2117    2.7142 H   0  0  0  0  0  0  0  0  0  0  0  0
    1.5805   -0.4022    0.7799 H   0  0  0  0  0  0  0  0  0  0  0  0
    0.3915    0.1677    1.8609 H   0  0  0  0  0  0  0  0  0  0  0  0
   -0.0931    0.9873   -1.0582 H   0  0  0  0  0  0  0  0  0  0  0  0
    0.4268   -0.6575   -0.9515 H   0  0  0  0  0  0  0  0  0  0  0  0
   -1.7780   -0.7141   -1.3182 H   0  0  0  0  0  0  0  0  0  0  0  0
   -1.3451    1.4704    1.9773 H   0  0  0  0  0  0  0  0  0  0  0  0
    0.3769    5.0819    0.2053 H   0  0  0  0  0  0  0  0  0  0  0  0
   -3.6771    3.6185   -2.0156 H   0  0  0  0  0  0  0  0  0  0  0  0
   -3.2623    1.9140   -2.2341 H   0  0  0  0  0  0  0  0  0  0  0  0
   -2.3121    3.1620   -3.1972 H   0  0  0  0  0  0  0  0  0  0  0  0
    1.1854    2.9286    2.6121 H   0  0  0  0  0  0  0  0  0  0  0  0
    1.8744    3.6442    1.1889 H   0  0  0  0  0  0  0  0  0  0  0  0
   -1.3878   -2.1477    0.8704 H   0  0  0  0  0  0  0  0  0  0  0  0
   -2.0803   -0.7715    1.7299 H   0  0  0  0  0  0  0  0  0  0  0  0
   -4.0090   -2.1927   -1.4549 H   0  0  0  0  0  0  0  0  0  0  0  0
   -2.3052   -2.7709   -1.1004 H   0  0  0  0  0  0  0  0  0  0  0  0
   -3.5097   -4.7606   -1.1543 H   0  0  0  0  0  0  0  0  0  0  0  0
   -3.5781   -4.3007    0.6441 H   0  0  0  0  0  0  0  0  0  0  0  0
   -7.0836   -2.8610    0.0541 H   0  0  0  0  0  0  0  0  0  0  0  0
   -6.3473   -1.4758    1.8601 H   0  0  0  0  0  0  0  0  0  0  0  0
   -5.0659   -2.6717    2.1452 H   0  0  0  0  0  0  0  0  0  0  0  0
   -4.9945   -0.4791    0.0994 H   0  0  0  0  0  0  0  0  0  0  0  0
  1  2  1  0
  2  3  1  0
  3  4  1  0
  4  5  1  0
  5  6  2  0
  6  7  1  0
  7  8  1  0
  7  9  2  0
  9 10  1  0
 10 11  2  0
 11 12  1  0
 12 13  1  0
 13 14  2  0
 13 15  1  0
 15 16  1  0
 16 17  1  0
 17 18  1  0
 18 19  1  0
 19 20  1  0
 20 21  1  0
 21 22  2  0
 22 23  1  0
 23 24  2  0
 24 25  1  0
 25 26  1  0
 24 27  1  0
 27 28  1  0
 27 29  1  0
 27 30  1  0
 22 31  1  0
 18 32  1  0
 32 33  1  0
 33 34  1  0
 34 35  1  0
 35 36  1  0
 36 37  2  0
 36 38  1  0
 38 39  1  0
 39 40  1  0
 40 41  1  0
 41 42  3  0
 12  3  2  0
 31 15  1  0
 40 33  1  0
 11  5  1  0
 25 20  2  0
  1 43  1  0
  1 44  1  0
  1 45  1  0
  2 46  1  0
  2 47  1  0
  6 48  1  0
  8 49  1  0
  8 50  1  0
  8 51  1  0
  9 52  1  0
 10 53  1  0
 16 54  1  0
 16 55  1  0
 17 56  1  0
 17 57  1  0
 18 58  1  6
 21 59  1  0
 23 60  1  0
 26 61  1  0
 26 62  1  0
 26 63  1  0
 31 64  1  0
 31 65  1  0
 32 66  1  0
 32 67  1  0
 34 68  1  0
 34 69  1  0
 35 70  1  0
 35 71  1  0
 38 72  1  0
 39 73  1  0
 39 74  1  0
 40 75  1  6
M  END
$$$$
[H]OC(=O)C([H])([H])N(c1nc([H])c(C([H])([H])[H])c(Cl)n1)c1c([H])c([H])c(N([H])C(=O)c2c([H])c([H])c([H])c(-c3c([H])c(Cl)c(Cl)c([H])c3Cl)c2[H])c([H])c1[H]
     RDKit          3D

 55 58  0  0  0  0  0  0  0  0999 V2000
    6.7153   -3.8500    2.0033 O   0  0  0  0  0  0  0  0  0  0  0  0
    6.0826   -2.6075    1.8765 C   0  0  0  0  0  0  0  0  0  0  0  0
    6.5461   -1.6682    2.5306 O   0  0  0  0  0  0  0  0  0  0  0  0
    4.9432   -2.5132    0.9969 C   0  0  0  0  0  0  0  0  0  0  0  0
    4.5257   -1.2555    0.4951 N   0  0  0  0  0  0  0  0  0  0  0  0
    3.1200   -1.1500    0.1368 C   0  0  0  0  0  0  0  0  0  0  0  0
    2.1948   -0.6837    1.0360 C   0  0  0  0  0  0  0  0  0  0  0  0
    0.8390   -0.5833    0.6849 C   0  0  0  0  0  0  0  0  0  0  0  0
    0.3866   -0.9408   -0.5520 C   0  0  0  0  0  0  0  0  0  0  0  0
   -0.9596   -0.8506   -1.0074 N   0  0  0  0  0  0  0  0  0  0  0  0
   -2.0101   -0.1350   -0.4215 C   0  0  0  0  0  0  0  0  0  0  0  0
   -1.8241    0.5277    0.6244 O   0  0  0  0  0  0  0  0  0  0  0  0
   -3.3613   -0.1439   -1.0207 C   0  0  0  0  0  0  0  0  0  0  0  0
   -3.5359   -0.4985   -2.3344 C   0  0  0  0  0  0  0  0  0  0  0  0
   -4.8455   -0.4915   -2.8322 C   0  0  0  0  0  0  0  0  0  0  0  0
   -5.9044   -0.1406   -2.0231 C   0  0  0  0  0  0  0  0  0  0  0  0
   -5.7225    0.2167   -0.6978 C   0  0  0  0  0  0  0  0  0  0  0  0
   -6.9021    0.5827    0.0861 C   0  0  0  0  0  0  0  0  0  0  0  0
   -7.8254    1.5075   -0.4220 C   0  0  0  0  0  0  0  0  0  0  0  0
   -8.9239    1.8478    0.3335 C   0  0  0  0  0  0  0  0  0  0  0  0
  -10.0763    3.0159   -0.3300 Cl  0  0  0  0  0  0  0  0  0  0  0  0
   -9.1700    1.3249    1.5751 C   0  0  0  0  0  0  0  0  0  0  0  0
  -10.5890    1.8201    2.4502 Cl  0  0  0  0  0  0  0  0  0  0  0  0
   -8.2557    0.4190    2.0597 C   0  0  0  0  0  0  0  0  0  0  0  0
   -7.1409    0.0536    1.3287 C   0  0  0  0  0  0  0  0  0  0  0  0
   -5.9940   -1.1246    1.9793 Cl  0  0  0  0  0  0  0  0  0  0  0  0
   -4.4397    0.2129   -0.2005 C   0  0  0  0  0  0  0  0  0  0  0  0
    1.3504   -1.4177   -1.4607 C   0  0  0  0  0  0  0  0  0  0  0  0
    2.6794   -1.5152   -1.1140 C   0  0  0  0  0  0  0  0  0  0  0  0
    5.3317   -0.1242    0.2288 C   0  0  0  0  0  0  0  0  0  0  0  0
    6.6583   -0.0913    0.2263 N   0  0  0  0  0  0  0  0  0  0  0  0
    7.4343    0.9522   -0.0150 C   0  0  0  0  0  0  0  0  0  0  0  0
    6.8279    2.1679   -0.3020 C   0  0  0  0  0  0  0  0  0  0  0  0
    7.6019    3.3933   -0.5852 C   0  0  0  0  0  0  0  0  0  0  0  0
    5.4527    2.1761   -0.3092 C   0  0  0  0  0  0  0  0  0  0  0  0
    4.6523    3.7126   -0.6711 Cl  0  0  0  0  0  0  0  0  0  0  0  0
    4.7279    1.0805   -0.0555 N   0  0  0  0  0  0  0  0  0  0  0  0
    7.3515   -4.2216    1.3135 H   0  0  0  0  0  0  0  0  0  0  0  0
    4.0173   -3.0047    1.4550 H   0  0  0  0  0  0  0  0  0  0  0  0
    5.0904   -3.2016    0.0826 H   0  0  0  0  0  0  0  0  0  0  0  0
    2.5185   -0.3909    2.0264 H   0  0  0  0  0  0  0  0  0  0  0  0
    0.1713   -0.2203    1.4417 H   0  0  0  0  0  0  0  0  0  0  0  0
   -1.2290   -1.3919   -1.8945 H   0  0  0  0  0  0  0  0  0  0  0  0
   -2.7219   -0.7769   -3.0065 H   0  0  0  0  0  0  0  0  0  0  0  0
   -4.9627   -0.7741   -3.8707 H   0  0  0  0  0  0  0  0  0  0  0  0
   -6.9068   -0.1446   -2.4380 H   0  0  0  0  0  0  0  0  0  0  0  0
   -7.6703    1.9426   -1.3919 H   0  0  0  0  0  0  0  0  0  0  0  0
   -8.4081   -0.0193    3.0335 H   0  0  0  0  0  0  0  0  0  0  0  0
   -4.2317    0.4865    0.8214 H   0  0  0  0  0  0  0  0  0  0  0  0
    1.0193   -1.7058   -2.4408 H   0  0  0  0  0  0  0  0  0  0  0  0
    3.4342   -1.8880   -1.8228 H   0  0  0  0  0  0  0  0  0  0  0  0
    8.5090    0.8942    0.0029 H   0  0  0  0  0  0  0  0  0  0  0  0
    8.6670    3.2874   -0.3085 H   0  0  0  0  0  0  0  0  0  0  0  0
    7.5558    3.6896   -1.6378 H   0  0  0  0  0  0  0  0  0  0  0  0
    7.2068    4.2131    0.0691 H   0  0  0  0  0  0  0  0  0  0  0  0
  1  2  1  0
  2  3  2  0
  2  4  1  0
  4  5  1  0
  5  6  1  0
  6  7  2  0
  7  8  1  0
  8  9  2  0
  9 10  1  0
 10 11  1  0
 11 12  2  0
 11 13  1  0
 13 14  2  0
 14 15  1  0
 15 16  2  0
 16 17  1  0
 17 18  1  0
 18 19  2  0
 19 20  1  0
 20 21  1  0
 20 22  2  0
 22 23  1  0
 22 24  1  0
 24 25  2  0
 25 26  1  0
 17 27  2  0
  9 28  1  0
 28 29  2  0
  5 30  1  0
 30 31  2  0
 31 32  1  0
 32 33  2  0
 33 34  1  0
 33 35  1  0
 35 36  1  0
 35 37  2  0
 29  6  1  0
 37 30  1  0
 27 13  1  0
 25 18  1  0
  1 38  1  0
  4 39  1  0
  4 40  1  0
  7 41  1  0
  8 42  1  0
 10 43  1  0
 14 44  1  0
 15 45  1  0
 16 46  1  0
 19 47  1  0
 24 48  1  0
 27 49  1  0
 28 50  1  0
 29 51  1  0
 32 52  1  0
 34 53  1  0
 34 54  1  0
 34 55  1  0
M  END
$$$$
[H]c1c(F)c(C([H])([H])[H])c([H])c(C(=O)N([H])C([H])([H])[H])c1-c1nc(N2C([H])([H])C3([H])N(C([H])([H])[H])[C@]([H])(C2([H])[H])C([H])([H])C([H])([H])C3([H])[H])c([H])c(S(=O)(=O)C([H])([H])C([H])([H])[H])c1[H]
     RDKit          3D

 64 67  0  0  0  0  0  0  0  0999 V2000
    5.9019   -2.2915   -0.7666 C   0  0  0  0  0  0  0  0  0  0  0  0
    4.5927   -1.6885   -0.7983 N   0  0  0  0  0  0  0  0  0  0  0  0
    4.5979   -0.2824   -0.9825 C   0  0  0  0  0  0  0  0  0  0  0  0
    5.0610    0.5057    0.2233 C   0  0  0  0  0  0  0  0  0  0  0  0
    5.1709   -0.3294    1.4603 C   0  0  0  0  0  0  0  0  0  0  0  0
    4.0026   -1.2714    1.5549 C   0  0  0  0  0  0  0  0  0  0  0  0
    3.7501   -2.0724    0.3159 C   0  0  1  0  0  0  0  0  0  0  0  0
    2.3218   -1.8588   -0.1833 C   0  0  0  0  0  0  0  0  0  0  0  0
    2.1670   -0.5245   -0.6918 N   0  0  0  0  0  0  0  0  0  0  0  0
    3.2206    0.2011   -1.3343 C   0  0  0  0  0  0  0  0  0  0  0  0
    0.8793    0.1278   -0.5928 C   0  0  0  0  0  0  0  0  0  0  0  0
    0.6786    1.4642   -0.5600 C   0  0  0  0  0  0  0  0  0  0  0  0
   -0.5914    2.0223   -0.4963 C   0  0  0  0  0  0  0  0  0  0  0  0
   -1.6617    1.1365   -0.4677 C   0  0  0  0  0  0  0  0  0  0  0  0
   -1.4882   -0.2123   -0.4976 C   0  0  0  0  0  0  0  0  0  0  0  0
   -0.1890   -0.6668   -0.5612 N   0  0  0  0  0  0  0  0  0  0  0  0
   -2.4978   -1.2553   -0.5198 C   0  0  0  0  0  0  0  0  0  0  0  0
   -2.1547   -2.4857   -1.1146 C   0  0  0  0  0  0  0  0  0  0  0  0
   -2.9918   -3.5657   -1.1258 C   0  0  0  0  0  0  0  0  0  0  0  0
   -2.6589   -4.7497   -1.6953 F   0  0  0  0  0  0  0  0  0  0  0  0
   -4.2384   -3.4276   -0.5166 C   0  0  0  0  0  0  0  0  0  0  0  0
   -5.1254   -4.6234   -0.5418 C   0  0  0  0  0  0  0  0  0  0  0  0
   -4.5910   -2.2666    0.0589 C   0  0  0  0  0  0  0  0  0  0  0  0
   -3.7159   -1.1535    0.0654 C   0  0  0  0  0  0  0  0  0  0  0  0
   -4.2506    0.0099    0.7571 C   0  0  0  0  0  0  0  0  0  0  0  0
   -3.7100    0.3001    1.8666 O   0  0  0  0  0  0  0  0  0  0  0  0
   -5.3045    0.7920    0.2734 N   0  0  0  0  0  0  0  0  0  0  0  0
   -5.7745    1.9279    1.0130 C   0  0  0  0  0  0  0  0  0  0  0  0
   -0.9080    3.7252   -0.4506 S   0  0  0  0  0  0  0  0  0  0  0  0
    0.2198    4.3981   -1.2215 O   0  0  0  0  0  0  0  0  0  0  0  0
   -2.1577    3.9818   -1.2433 O   0  0  0  0  0  0  0  0  0  0  0  0
   -1.0004    4.4060    1.1658 C   0  0  0  0  0  0  0  0  0  0  0  0
   -1.2741    5.9070    1.0081 C   0  0  0  0  0  0  0  0  0  0  0  0
    5.9395   -3.0482   -1.5769 H   0  0  0  0  0  0  0  0  0  0  0  0
    6.0478   -2.8198    0.1870 H   0  0  0  0  0  0  0  0  0  0  0  0
    6.7114   -1.5619   -0.9831 H   0  0  0  0  0  0  0  0  0  0  0  0
    5.3116   -0.0094   -1.8021 H   0  0  0  0  0  0  0  0  0  0  0  0
    6.0540    0.9848    0.0618 H   0  0  0  0  0  0  0  0  0  0  0  0
    4.3794    1.3692    0.4534 H   0  0  0  0  0  0  0  0  0  0  0  0
    6.1572   -0.8260    1.5507 H   0  0  0  0  0  0  0  0  0  0  0  0
    5.1024    0.3695    2.3393 H   0  0  0  0  0  0  0  0  0  0  0  0
    4.1611   -1.8859    2.4720 H   0  0  0  0  0  0  0  0  0  0  0  0
    3.1036   -0.6247    1.7718 H   0  0  0  0  0  0  0  0  0  0  0  0
    3.9299   -3.1326    0.5468 H   0  0  0  0  0  0  0  0  0  0  0  0
    1.5787   -2.1033    0.5829 H   0  0  0  0  0  0  0  0  0  0  0  0
    2.1870   -2.5669   -1.0470 H   0  0  0  0  0  0  0  0  0  0  0  0
    3.1333    1.3074   -1.2000 H   0  0  0  0  0  0  0  0  0  0  0  0
    3.0961   -0.0247   -2.4426 H   0  0  0  0  0  0  0  0  0  0  0  0
    1.5041    2.1438   -0.5745 H   0  0  0  0  0  0  0  0  0  0  0  0
   -2.6537    1.5577   -0.4552 H   0  0  0  0  0  0  0  0  0  0  0  0
   -1.1827   -2.5605   -1.5806 H   0  0  0  0  0  0  0  0  0  0  0  0
   -5.7467   -4.6643    0.3610 H   0  0  0  0  0  0  0  0  0  0  0  0
   -5.7846   -4.5236   -1.4321 H   0  0  0  0  0  0  0  0  0  0  0  0
   -4.5305   -5.5729   -0.6274 H   0  0  0  0  0  0  0  0  0  0  0  0
   -5.5784   -2.1977    0.5238 H   0  0  0  0  0  0  0  0  0  0  0  0
   -5.7899    0.5784   -0.6283 H   0  0  0  0  0  0  0  0  0  0  0  0
   -6.5741    1.5963    1.6945 H   0  0  0  0  0  0  0  0  0  0  0  0
   -6.1155    2.7818    0.3811 H   0  0  0  0  0  0  0  0  0  0  0  0
   -4.9059    2.2927    1.6410 H   0  0  0  0  0  0  0  0  0  0  0  0
   -0.0371    4.2445    1.6862 H   0  0  0  0  0  0  0  0  0  0  0  0
   -1.8415    3.9402    1.7243 H   0  0  0  0  0  0  0  0  0  0  0  0
   -1.6289    6.1393   -0.0070 H   0  0  0  0  0  0  0  0  0  0  0  0
   -1.9924    6.1874    1.8096 H   0  0  0  0  0  0  0  0  0  0  0  0
   -0.3159    6.4493    1.1686 H   0  0  0  0  0  0  0  0  0  0  0  0
  1  2  1  0
  2  3  1  0
  3  4  1  0
  4  5  1  0
  5  6  1  0
  6  7  1  0
  7  8  1  0
  8  9  1  0
  9 10  1  0
  9 11  1  0
 11 12  2  0
 12 13  1  0
 13 14  2  0
 14 15  1  0
 15 16  2  0
 15 17  1  0
 17 18  2  0
 18 19  1  0
 19 20  1  0
 19 21  2  0
 21 22  1  0
 21 23  1  0
 23 24  2  0
 24 25  1  0
 25 26  2  0
 25 27  1  0
 27 28  1  0
 13 29  1  0
 29 30  2  0
 29 31  2  0
 29 32  1  0
 32 33  1  0
  7  2  1  0
 16 11  1  0
 24 17  1  0
 10  3  1  0
  1 34  1  0
  1 35  1  0
  1 36  1  0
  3 37  1  0
  4 38  1  0
  4 39  1  0
  5 40  1  0
  5 41  1  0
  6 42  1  0
  6 43  1  0
  7 44  1  1
  8 45  1  0
  8 46  1  0
 10 47  1  0
 10 48  1  0
 12 49  1  0
 14 50  1  0
 18 51  1  0
 22 52  1  0
 22 53  1  0
 22 54  1  0
 23 55  1  0
 27 56  1  0
 28 57  1  0
 28 58  1  0
 28 59  1  0
 32 60  1  0
 32 61  1  0
 33 62  1  0
 33 63  1  0
 33 64  1  0
M  END
$$$$
