[H]c1nn2c(C#Cc3c([H])c(C(=O)N([H])c4c([H])c([H])c(C([H])([H])N5C([H])([H])C([H])([H])N(C([H])([H])[H])C([H])([H])C5([H])[H])c(C(F)(F)F)c4[H])c([H])c([H])c3C([H])([H])[H])c([H])nc2c([H])c1[H]
     RDKit          3D

 66 70  0  0  0  0  0  0  0  0999 V2000
   -9.0141    0.5418    1.2184 C   0  0  0  0  0  0  0  0  0  0  0  0
   -8.8477   -0.5373    0.2497 N   0  0  0  0  0  0  0  0  0  0  0  0
   -8.5827    0.0899   -1.0334 C   0  0  0  0  0  0  0  0  0  0  0  0
   -7.2552    0.7645   -0.9438 C   0  0  0  0  0  0  0  0  0  0  0  0
   -6.2118   -0.1531   -0.5341 N   0  0  0  0  0  0  0  0  0  0  0  0
   -5.0784    0.5515   -0.2211 C   0  0  0  0  0  0  0  0  0  0  0  0
   -3.8319    0.0140    0.2644 C   0  0  0  0  0  0  0  0  0  0  0  0
   -3.5518   -0.6040    1.4571 C   0  0  0  0  0  0  0  0  0  0  0  0
   -2.2394   -0.9318    1.8952 C   0  0  0  0  0  0  0  0  0  0  0  0
   -1.2224   -0.6514    1.1434 C   0  0  0  0  0  0  0  0  0  0  0  0
    0.1776   -0.9147    1.0432 N   0  0  0  0  0  0  0  0  0  0  0  0
    0.9252    0.3673    0.9712 C   0  0  0  0  0  0  0  0  0  0  0  0
    0.3900    1.4501    1.2745 O   0  0  0  0  0  0  0  0  0  0  0  0
    2.2559    0.2272    0.4429 C   0  0  0  0  0  0  0  0  0  0  0  0
    2.2723    0.7699   -0.8934 C   0  0  0  0  0  0  0  0  0  0  0  0
    3.3216    0.5540   -1.7049 C   0  0  0  0  0  0  0  0  0  0  0  0
    4.3564   -0.1799   -1.2160 C   0  0  0  0  0  0  0  0  0  0  0  0
    5.4628   -0.6335   -2.1215 C   0  0  0  0  0  0  0  0  0  0  0  0
    4.3807   -0.7203    0.0965 C   0  0  0  0  0  0  0  0  0  0  0  0
    3.2907   -0.4872    0.8836 C   0  0  0  0  0  0  0  0  0  0  0  0
    5.6656   -1.1744    0.4682 C   0  0  0  0  0  0  0  0  0  0  0  0
    6.8054   -1.3674    0.6644 C   0  0  0  0  0  0  0  0  0  0  0  0
    8.2411   -1.2901    0.7197 C   0  0  0  0  0  0  0  0  0  0  0  0
    9.2492   -2.1485    0.6677 C   0  0  0  0  0  0  0  0  0  0  0  0
   10.4396   -1.4267    0.6587 N   0  0  0  0  0  0  0  0  0  0  0  0
   10.1682   -0.1244    0.7099 C   0  0  0  0  0  0  0  0  0  0  0  0
   10.9607    1.0611    0.7342 C   0  0  0  0  0  0  0  0  0  0  0  0
   10.3443    2.2758    0.7914 C   0  0  0  0  0  0  0  0  0  0  0  0
    8.9568    2.3238    0.8309 C   0  0  0  0  0  0  0  0  0  0  0  0
    8.2433    1.1733    0.8123 N   0  0  0  0  0  0  0  0  0  0  0  0
    8.8461   -0.0136    0.7488 N   0  0  0  0  0  0  0  0  0  0  0  0
   -1.4856    0.0127   -0.1275 C   0  0  0  0  0  0  0  0  0  0  0  0
   -2.7267    0.3329   -0.5464 C   0  0  0  0  0  0  0  0  0  0  0  0
   -2.8951    0.8514   -1.9142 C   0  0  0  0  0  0  0  0  0  0  0  0
   -3.4853    1.9980   -2.1589 F   0  0  0  0  0  0  0  0  0  0  0  0
   -1.5739    0.9910   -2.4785 F   0  0  0  0  0  0  0  0  0  0  0  0
   -3.4174   -0.1983   -2.7307 F   0  0  0  0  0  0  0  0  0  0  0  0
   -6.5996   -1.4045   -0.2114 C   0  0  0  0  0  0  0  0  0  0  0  0
   -7.8275   -1.3914    0.7322 C   0  0  0  0  0  0  0  0  0  0  0  0
   -8.9944    1.5421    0.7561 H   0  0  0  0  0  0  0  0  0  0  0  0
   -9.9404    0.4070    1.7763 H   0  0  0  0  0  0  0  0  0  0  0  0
   -8.1456    0.5266    1.9416 H   0  0  0  0  0  0  0  0  0  0  0  0
   -9.3429    0.9146   -1.1504 H   0  0  0  0  0  0  0  0  0  0  0  0
   -8.5824   -0.5940   -1.8738 H   0  0  0  0  0  0  0  0  0  0  0  0
   -6.9842    1.2855   -1.8653 H   0  0  0  0  0  0  0  0  0  0  0  0
   -7.3084    1.6045   -0.1677 H   0  0  0  0  0  0  0  0  0  0  0  0
   -5.0019    1.5750   -0.6965 H   0  0  0  0  0  0  0  0  0  0  0  0
   -5.4877    1.0414    0.8917 H   0  0  0  0  0  0  0  0  0  0  0  0
   -4.3664   -0.8563    2.1240 H   0  0  0  0  0  0  0  0  0  0  0  0
   -2.1533   -1.4176    2.8772 H   0  0  0  0  0  0  0  0  0  0  0  0
    0.5883   -1.7873    1.0131 H   0  0  0  0  0  0  0  0  0  0  0  0
    1.4249    1.3704   -1.1553 H   0  0  0  0  0  0  0  0  0  0  0  0
    3.3639    1.0029   -2.6930 H   0  0  0  0  0  0  0  0  0  0  0  0
    5.7303   -1.7156   -1.7572 H   0  0  0  0  0  0  0  0  0  0  0  0
    6.3688   -0.0484   -1.9681 H   0  0  0  0  0  0  0  0  0  0  0  0
    5.1536   -0.7782   -3.1765 H   0  0  0  0  0  0  0  0  0  0  0  0
    3.3252   -0.8897    1.9055 H   0  0  0  0  0  0  0  0  0  0  0  0
    9.0998   -3.2243    0.6154 H   0  0  0  0  0  0  0  0  0  0  0  0
   12.0368    1.0199    0.6456 H   0  0  0  0  0  0  0  0  0  0  0  0
   10.9167    3.2214    0.8053 H   0  0  0  0  0  0  0  0  0  0  0  0
    8.3858    3.2423    0.8728 H   0  0  0  0  0  0  0  0  0  0  0  0
   -0.6206    0.2114   -0.7285 H   0  0  0  0  0  0  0  0  0  0  0  0
   -5.8347   -2.0618    0.3018 H   0  0  0  0  0  0  0  0  0  0  0  0
   -6.9602   -2.0806   -1.0664 H   0  0  0  0  0  0  0  0  0  0  0  0
   -8.1424   -2.4295    0.8356 H   0  0  0  0  0  0  0  0  0  0  0  0
   -7.4357   -1.0792    1.7405 H   0  0  0  0  0  0  0  0  0  0  0  0
  1  2  1  0
  2  3  1  0
  3  4  1  0
  4  5  1  0
  5  6  1  0
  6  7  1  0
  7  8  2  0
  8  9  1  0
  9 10  2  0
 10 11  1  0
 11 12  1  0
 12 13  2  0
 12 14  1  0
 14 15  2  0
 15 16  1  0
 16 17  2  0
 17 18  1  0
 17 19  1  0
 19 20  2  0
 19 21  1  0
 21 22  3  0
 22 23  1  0
 23 24  2  0
 24 25  1  0
 25 26  2  0
 26 27  1  0
 27 28  2  0
 28 29  1  0
 29 30  2  0
 30 31  1  0
 10 32  1  0
 32 33  2  0
 33 34  1  0
 34 35  1  0
 34 36  1  0
 34 37  1  0
  5 38  1  0
 38 39  1  0
 39  2  1  0
 33  7  1  0
 20 14  1  0
 31 23  1  0
 31 26  1  0
  1 40  1  0
  1 41  1  0
  1 42  1  0
  3 43  1  0
  3 44  1  0
  4 45  1  0
  4 46  1  0
  6 47  1  0
  6 48  1  0
  8 49  1  0
  9 50  1  0
 11 51  1  0
 15 52  1  0
 16 53  1  0
 18 54  1  0
 18 55  1  0
 18 56  1  0
 20 57  1  0
 24 58  1  0
 27 59  1  0
 28 60  1  0
 29 61  1  0
 32 62  1  0
 38 63  1  0
 38 64  1  0
 39 65  1  0
 39 66  1  0
M  END
$$$$
[H]c1nc2c([H])c([H])nn2c([H])c1C#Cc1c([H])c(C(=O)N([H])c2c([H])c([H])c(C([H])([H])N3C([H])([H])C([H])([H])N(C([H])([H])[H])C([H])([H])C3([H])[H])c(C(F)(F)F)c2[H])c([H])c([H])c1C([H])([H])[H]
     RDKit          3D

 66 70  0  0  0  0  0  0  0  0999 V2000
   -8.0029   -0.9329    2.0798 C   0  0  0  0  0  0  0  0  0  0  0  0
   -8.6737   -0.7182    0.8267 N   0  0  0  0  0  0  0  0  0  0  0  0
   -8.8976    0.6765    0.6014 C   0  0  0  0  0  0  0  0  0  0  0  0
   -7.5966    1.4156    0.6114 C   0  0  0  0  0  0  0  0  0  0  0  0
   -6.4528    0.5166    0.3189 N   0  0  0  0  0  0  0  0  0  0  0  0
   -5.3589    1.3622   -0.1447 C   0  0  0  0  0  0  0  0  0  0  0  0
   -4.0697    0.6837   -0.2699 C   0  0  0  0  0  0  0  0  0  0  0  0
   -3.8496   -0.6400    0.1072 C   0  0  0  0  0  0  0  0  0  0  0  0
   -2.6262   -1.2385    0.0140 C   0  0  0  0  0  0  0  0  0  0  0  0
   -1.5137   -0.5283   -0.4763 C   0  0  0  0  0  0  0  0  0  0  0  0
   -0.2725   -1.2075   -0.5695 N   0  0  0  0  0  0  0  0  0  0  0  0
    0.9711   -0.6227   -0.6893 C   0  0  0  0  0  0  0  0  0  0  0  0
    1.1143    0.6247   -0.7182 O   0  0  0  0  0  0  0  0  0  0  0  0
    2.2022   -1.4296   -0.7890 C   0  0  0  0  0  0  0  0  0  0  0  0
    2.2018   -2.7513   -1.1592 C   0  0  0  0  0  0  0  0  0  0  0  0
    3.3841   -3.4303   -1.2178 C   0  0  0  0  0  0  0  0  0  0  0  0
    4.5597   -2.8038   -0.9118 C   0  0  0  0  0  0  0  0  0  0  0  0
    5.8812   -3.5244   -0.9667 C   0  0  0  0  0  0  0  0  0  0  0  0
    4.6282   -1.4690   -0.5306 C   0  0  0  0  0  0  0  0  0  0  0  0
    3.4148   -0.8178   -0.4832 C   0  0  0  0  0  0  0  0  0  0  0  0
    5.8617   -0.8049   -0.2067 C   0  0  0  0  0  0  0  0  0  0  0  0
    6.8890   -0.2374    0.0830 C   0  0  0  0  0  0  0  0  0  0  0  0
    8.0983    0.4508    0.4462 C   0  0  0  0  0  0  0  0  0  0  0  0
    9.3432   -0.1087    0.2397 C   0  0  0  0  0  0  0  0  0  0  0  0
   10.4720    0.5418    0.5826 N   0  0  0  0  0  0  0  0  0  0  0  0
   10.4405    1.7657    1.1417 C   0  0  0  0  0  0  0  0  0  0  0  0
   11.4391    2.6407    1.5824 C   0  0  0  0  0  0  0  0  0  0  0  0
   10.7757    3.7484    2.0632 C   0  0  0  0  0  0  0  0  0  0  0  0
    9.4813    3.5210    1.9074 N   0  0  0  0  0  0  0  0  0  0  0  0
    9.2453    2.3420    1.3580 N   0  0  0  0  0  0  0  0  0  0  0  0
    8.0987    1.7156    1.0254 C   0  0  0  0  0  0  0  0  0  0  0  0
   -1.7463    0.7534   -0.8371 C   0  0  0  0  0  0  0  0  0  0  0  0
   -2.9947    1.3973   -0.7529 C   0  0  0  0  0  0  0  0  0  0  0  0
   -3.1379    2.7898   -1.1765 C   0  0  0  0  0  0  0  0  0  0  0  0
   -3.5699    3.6609   -0.2069 F   0  0  0  0  0  0  0  0  0  0  0  0
   -1.8666    3.2860   -1.5291 F   0  0  0  0  0  0  0  0  0  0  0  0
   -3.8560    2.9314   -2.3744 F   0  0  0  0  0  0  0  0  0  0  0  0
   -6.9052   -0.3353   -0.7914 C   0  0  0  0  0  0  0  0  0  0  0  0
   -7.9008   -1.3168   -0.2551 C   0  0  0  0  0  0  0  0  0  0  0  0
   -7.6913    0.0402    2.5427 H   0  0  0  0  0  0  0  0  0  0  0  0
   -8.6959   -1.4225    2.8022 H   0  0  0  0  0  0  0  0  0  0  0  0
   -7.0790   -1.5250    1.9504 H   0  0  0  0  0  0  0  0  0  0  0  0
   -9.5281    1.0772    1.4118 H   0  0  0  0  0  0  0  0  0  0  0  0
   -9.3901    0.8202   -0.3836 H   0  0  0  0  0  0  0  0  0  0  0  0
   -7.5385    2.2187   -0.1551 H   0  0  0  0  0  0  0  0  0  0  0  0
   -7.4030    1.8955    1.5933 H   0  0  0  0  0  0  0  0  0  0  0  0
   -5.6699    1.9698   -1.0107 H   0  0  0  0  0  0  0  0  0  0  0  0
   -5.2394    2.1079    0.7021 H   0  0  0  0  0  0  0  0  0  0  0  0
   -4.6665   -1.2422    0.5086 H   0  0  0  0  0  0  0  0  0  0  0  0
   -2.4434   -2.2588    0.3018 H   0  0  0  0  0  0  0  0  0  0  0  0
   -0.2797   -2.2866   -0.5442 H   0  0  0  0  0  0  0  0  0  0  0  0
    1.2452   -3.2126   -1.3995 H   0  0  0  0  0  0  0  0  0  0  0  0
    3.3976   -4.4660   -1.5062 H   0  0  0  0  0  0  0  0  0  0  0  0
    6.1453   -3.8815    0.0456 H   0  0  0  0  0  0  0  0  0  0  0  0
    6.6144   -2.8164   -1.3879 H   0  0  0  0  0  0  0  0  0  0  0  0
    5.8085   -4.3726   -1.6813 H   0  0  0  0  0  0  0  0  0  0  0  0
    3.4436    0.2265   -0.1878 H   0  0  0  0  0  0  0  0  0  0  0  0
    9.3653   -1.1030   -0.2147 H   0  0  0  0  0  0  0  0  0  0  0  0
   12.4997    2.4477    1.5366 H   0  0  0  0  0  0  0  0  0  0  0  0
   11.3008    4.6037    2.4761 H   0  0  0  0  0  0  0  0  0  0  0  0
    7.1270    2.1747    1.1971 H   0  0  0  0  0  0  0  0  0  0  0  0
   -0.9520    1.3665   -1.2382 H   0  0  0  0  0  0  0  0  0  0  0  0
   -6.0773   -0.7966   -1.2771 H   0  0  0  0  0  0  0  0  0  0  0  0
   -7.3996    0.3367   -1.5385 H   0  0  0  0  0  0  0  0  0  0  0  0
   -8.6471   -1.5372   -1.0652 H   0  0  0  0  0  0  0  0  0  0  0  0
   -7.4574   -2.2707    0.0357 H   0  0  0  0  0  0  0  0  0  0  0  0
  1  2  1  0
  2  3  1  0
  3  4  1  0
  4  5  1  0
  5  6  1  0
  6  7  1  0
  7  8  2  0
  8  9  1  0
  9 10  2  0
 10 11  1  0
 11 12  1  0
 12 13  2  0
 12 14  1  0
 14 15  2  0
 15 16  1  0
 16 17  2  0
 17 18  1  0
 17 19  1  0
 19 20  2  0
 19 21  1  0
 21 22  3  0
 22 23  1  0
 23 24  1  0
 24 25  2  0
 25 26  1  0
 26 27  2  0
 27 28  1  0
 28 29  2  0
 29 30  1  0
 30 31  1  0
 10 32  1  0
 32 33  2  0
 33 34  1  0
 34 35  1  0
 34 36  1  0
 34 37  1  0
  5 38  1  0
 38 39  1  0
 39  2  1  0
 33  7  1  0
 20 14  1  0
 31 23  2  0
 30 26  1  0
  1 40  1  0
  1 41  1  0
  1 42  1  0
  3 43  1  0
  3 44  1  0
  4 45  1  0
  4 46  1  0
  6 47  1  0
  6 48  1  0
  8 49  1  0
  9 50  1  0
 11 51  1  0
 15 52  1  0
 16 53  1  0
 18 54  1  0
 18 55  1  0
 18 56  1  0
 20 57  1  0
 24 58  1  0
 27 59  1  0
 28 60  1  0
 31 61  1  0
 32 62  1  0
 38 63  1  0
 38 64  1  0
 39 65  1  0
 39 66  1  0
M  END
$$$$
[H]c1nc(N([H])[H])nc([H])c1C#Cc1c([H])c(C(=O)N([H])c2c([H])c([H])c(C([H])([H])N3C([H])([H])C([H])([H])N(C([H])([H])[H])C([H])([H])C3([H])[H])c(C(F)(F)F)c2[H])c([H])c([H])c1C([H])([H])[H]
     RDKit          3D

 64 67  0  0  0  0  0  0  0  0999 V2000
   -9.7421    0.3572    0.4451 C   0  0  0  0  0  0  0  0  0  0  0  0
   -8.8322   -0.7575    0.6041 N   0  0  0  0  0  0  0  0  0  0  0  0
   -7.8713   -0.5599    1.6379 C   0  0  0  0  0  0  0  0  0  0  0  0
   -6.7406    0.4294    1.1948 C   0  0  0  0  0  0  0  0  0  0  0  0
   -6.1634   -0.0007    0.0440 N   0  0  0  0  0  0  0  0  0  0  0  0
   -5.0445    0.2707   -0.6336 C   0  0  0  0  0  0  0  0  0  0  0  0
   -3.7055    0.5042   -0.1401 C   0  0  0  0  0  0  0  0  0  0  0  0
   -3.2607    1.6458    0.5030 C   0  0  0  0  0  0  0  0  0  0  0  0
   -1.8881    1.9198    0.6670 C   0  0  0  0  0  0  0  0  0  0  0  0
   -0.9202    1.0901    0.2174 C   0  0  0  0  0  0  0  0  0  0  0  0
    0.4367    1.0582    0.3728 N   0  0  0  0  0  0  0  0  0  0  0  0
    1.4860    1.5112    1.1679 C   0  0  0  0  0  0  0  0  0  0  0  0
    1.4450    2.3211    2.0208 O   0  0  0  0  0  0  0  0  0  0  0  0
    2.7340    0.7582    0.7854 C   0  0  0  0  0  0  0  0  0  0  0  0
    2.4241   -0.6283    0.6044 C   0  0  0  0  0  0  0  0  0  0  0  0
    3.3658   -1.5178    0.2343 C   0  0  0  0  0  0  0  0  0  0  0  0
    4.6301   -1.0496    0.0402 C   0  0  0  0  0  0  0  0  0  0  0  0
    5.6652   -1.9570   -0.4288 C   0  0  0  0  0  0  0  0  0  0  0  0
    4.9767    0.3321    0.2259 C   0  0  0  0  0  0  0  0  0  0  0  0
    3.9808    1.1900    0.5927 C   0  0  0  0  0  0  0  0  0  0  0  0
    6.3495    0.6114    0.1119 C   0  0  0  0  0  0  0  0  0  0  0  0
    7.5378    0.7134    0.0371 C   0  0  0  0  0  0  0  0  0  0  0  0
    8.9587    0.6665   -0.0220 C   0  0  0  0  0  0  0  0  0  0  0  0
    9.6383   -0.3353    0.6934 C   0  0  0  0  0  0  0  0  0  0  0  0
   10.9531   -0.4889    0.5991 N   0  0  0  0  0  0  0  0  0  0  0  0
   11.7187    0.2987   -0.1795 C   0  0  0  0  0  0  0  0  0  0  0  0
   13.1109    0.0908   -0.2642 N   0  0  0  0  0  0  0  0  0  0  0  0
   11.0871    1.2620   -0.8678 N   0  0  0  0  0  0  0  0  0  0  0  0
    9.7354    1.4576   -0.8059 C   0  0  0  0  0  0  0  0  0  0  0  0
   -1.4246   -0.0974   -0.4450 C   0  0  0  0  0  0  0  0  0  0  0  0
   -2.7280   -0.3815   -0.6148 C   0  0  0  0  0  0  0  0  0  0  0  0
   -3.1333   -1.7098   -1.1391 C   0  0  0  0  0  0  0  0  0  0  0  0
   -3.8646   -1.8213   -2.2421 F   0  0  0  0  0  0  0  0  0  0  0  0
   -3.7132   -2.4311   -0.0201 F   0  0  0  0  0  0  0  0  0  0  0  0
   -1.9505   -2.4572   -1.3336 F   0  0  0  0  0  0  0  0  0  0  0  0
   -7.2331   -0.1026   -0.9992 C   0  0  0  0  0  0  0  0  0  0  0  0
   -8.2296   -1.1379   -0.6606 C   0  0  0  0  0  0  0  0  0  0  0  0
  -10.1353    0.5912    1.4538 H   0  0  0  0  0  0  0  0  0  0  0  0
   -9.3526    1.2165   -0.0864 H   0  0  0  0  0  0  0  0  0  0  0  0
  -10.6101   -0.0257   -0.1389 H   0  0  0  0  0  0  0  0  0  0  0  0
   -7.4216   -1.5118    1.9194 H   0  0  0  0  0  0  0  0  0  0  0  0
   -8.3414   -0.0819    2.5082 H   0  0  0  0  0  0  0  0  0  0  0  0
   -7.0943    1.4497    1.3058 H   0  0  0  0  0  0  0  0  0  0  0  0
   -5.9912    0.2513    2.0629 H   0  0  0  0  0  0  0  0  0  0  0  0
   -5.3219    1.4198   -1.0407 H   0  0  0  0  0  0  0  0  0  0  0  0
   -5.0711   -0.1258   -1.7246 H   0  0  0  0  0  0  0  0  0  0  0  0
   -3.9744    2.3533    0.8742 H   0  0  0  0  0  0  0  0  0  0  0  0
   -1.5437    2.8507    1.1399 H   0  0  0  0  0  0  0  0  0  0  0  0
    0.9443    0.5291   -0.5268 H   0  0  0  0  0  0  0  0  0  0  0  0
    1.4116   -0.9089    0.8365 H   0  0  0  0  0  0  0  0  0  0  0  0
    3.0845   -2.5404    0.1150 H   0  0  0  0  0  0  0  0  0  0  0  0
    5.2505   -3.0172   -0.5421 H   0  0  0  0  0  0  0  0  0  0  0  0
    6.5356   -1.9140    0.2211 H   0  0  0  0  0  0  0  0  0  0  0  0
    6.0177   -1.6893   -1.4907 H   0  0  0  0  0  0  0  0  0  0  0  0
    4.2075    2.2334    0.7099 H   0  0  0  0  0  0  0  0  0  0  0  0
    9.0321   -0.9740    1.3253 H   0  0  0  0  0  0  0  0  0  0  0  0
   13.7711    0.8144    0.0682 H   0  0  0  0  0  0  0  0  0  0  0  0
   13.5129   -0.7788   -0.6709 H   0  0  0  0  0  0  0  0  0  0  0  0
    9.2262    2.2396   -1.3485 H   0  0  0  0  0  0  0  0  0  0  0  0
   -0.6596   -0.7955   -0.8375 H   0  0  0  0  0  0  0  0  0  0  0  0
   -7.6435    0.8965   -1.0738 H   0  0  0  0  0  0  0  0  0  0  0  0
   -6.7199   -0.3136   -1.9933 H   0  0  0  0  0  0  0  0  0  0  0  0
   -9.0456   -1.0633   -1.4377 H   0  0  0  0  0  0  0  0  0  0  0  0
   -7.8561   -2.1598   -0.6784 H   0  0  0  0  0  0  0  0  0  0  0  0
  1  2  1  0
  2  3  1  0
  3  4  1  0
  4  5  1  0
  5  6  1  0
  6  7  1  0
  7  8  2  0
  8  9  1  0
  9 10  2  0
 10 11  1  0
 11 12  1  0
 12 13  2  0
 12 14  1  0
 14 15  2  0
 15 16  1  0
 16 17  2  0
 17 18  1  0
 17 19  1  0
 19 20  2  0
 19 21  1  0
 21 22  3  0
 22 23  1  0
 23 24  2  0
 24 25  1  0
 25 26  2  0
 26 27  1  0
 26 28  1  0
 28 29  2  0
 10 30  1  0
 30 31  2  0
 31 32  1  0
 32 33  1  0
 32 34  1  0
 32 35  1  0
  5 36  1  0
 36 37  1  0
 37  2  1  0
 31  7  1  0
 20 14  1  0
 29 23  1  0
  1 38  1  0
  1 39  1  0
  1 40  1  0
  3 41  1  0
  3 42  1  0
  4 43  1  0
  4 44  1  0
  6 45  1  0
  6 46  1  0
  8 47  1  0
  9 48  1  0
 11 49  1  0
 15 50  1  0
 16 51  1  0
 18 52  1  0
 18 53  1  0
 18 54  1  0
 20 55  1  0
 24 56  1  0
 27 57  1  0
 27 58  1  0
 29 59  1  0
 30 60  1  0
 36 61  1  0
 36 62  1  0
 37 63  1  0
 37 64  1  0
M  END
$$$$
[H]c1nc(N([H])c2c([H])c(C(=O)N([H])c3c([H])c([H])c(C([H])([H])N4C([H])([H])C([H])([H])N(C([H])([H])[H])C([H])([H])C4([H])[H])c(C(F)(F)F)c3[H])c([H])c([H])c2C([H])([H])[H])nc(-c2c([H])nc([H])c([H])c2[H])c1[H]
     RDKit          3D

 71 75  0  0  0  0  0  0  0  0999 V2000
   -8.2727    0.4777   -2.3797 C   0  0  0  0  0  0  0  0  0  0  0  0
   -7.6081    1.0890   -1.2233 N   0  0  0  0  0  0  0  0  0  0  0  0
   -6.3170    0.5558   -1.1021 C   0  0  0  0  0  0  0  0  0  0  0  0
   -5.7668    0.8813    0.3337 C   0  0  0  0  0  0  0  0  0  0  0  0
   -6.4886    0.1869    1.2284 N   0  0  0  0  0  0  0  0  0  0  0  0
   -6.0259   -0.4156    2.4353 C   0  0  0  0  0  0  0  0  0  0  0  0
   -4.5528   -0.6528    2.3873 C   0  0  0  0  0  0  0  0  0  0  0  0
   -3.7587    0.4550    2.1325 C   0  0  0  0  0  0  0  0  0  0  0  0
   -2.4392    0.3563    1.9940 C   0  0  0  0  0  0  0  0  0  0  0  0
   -1.7951   -0.9578    2.1194 C   0  0  0  0  0  0  0  0  0  0  0  0
   -0.4886   -0.7051    1.7504 N   0  0  0  0  0  0  0  0  0  0  0  0
   -0.1494   -0.9023    0.3322 C   0  0  0  0  0  0  0  0  0  0  0  0
   -0.8494   -1.4762   -0.4246 O   0  0  0  0  0  0  0  0  0  0  0  0
    1.1531   -0.1833    0.0983 C   0  0  0  0  0  0  0  0  0  0  0  0
    0.8690    1.2370    0.2175 C   0  0  0  0  0  0  0  0  0  0  0  0
    1.8248    2.1656    0.3353 C   0  0  0  0  0  0  0  0  0  0  0  0
    3.1756    1.7629    0.3372 C   0  0  0  0  0  0  0  0  0  0  0  0
    4.1732    2.8602    0.5201 C   0  0  0  0  0  0  0  0  0  0  0  0
    3.4171    0.4349    0.2104 C   0  0  0  0  0  0  0  0  0  0  0  0
    4.7563   -0.0536    0.3372 N   0  0  0  0  0  0  0  0  0  0  0  0
    5.6304    0.2502   -0.7734 C   0  0  0  0  0  0  0  0  0  0  0  0
    5.2096    1.0783   -1.7610 N   0  0  0  0  0  0  0  0  0  0  0  0
    5.9843    1.4886   -2.7381 C   0  0  0  0  0  0  0  0  0  0  0  0
    7.3223    1.0341   -2.7415 C   0  0  0  0  0  0  0  0  0  0  0  0
    7.7530    0.1752   -1.7405 C   0  0  0  0  0  0  0  0  0  0  0  0
    6.8831   -0.1951   -0.7756 N   0  0  0  0  0  0  0  0  0  0  0  0
    9.0231   -0.5337   -1.8342 C   0  0  0  0  0  0  0  0  0  0  0  0
   10.1571   -0.0083   -2.4079 C   0  0  0  0  0  0  0  0  0  0  0  0
   11.2599   -0.7870   -2.6961 C   0  0  0  0  0  0  0  0  0  0  0  0
   11.1566   -2.1261   -2.3754 C   0  0  0  0  0  0  0  0  0  0  0  0
   10.0509   -2.6621   -1.8080 N   0  0  0  0  0  0  0  0  0  0  0  0
    8.9950   -1.9204   -1.5307 C   0  0  0  0  0  0  0  0  0  0  0  0
    2.3939   -0.5584    0.0855 C   0  0  0  0  0  0  0  0  0  0  0  0
   -2.5897   -1.9963    2.3852 C   0  0  0  0  0  0  0  0  0  0  0  0
   -3.9910   -1.8760    2.5255 C   0  0  0  0  0  0  0  0  0  0  0  0
   -4.7705   -3.0839    2.8137 C   0  0  0  0  0  0  0  0  0  0  0  0
   -5.4529   -3.0753    3.9854 F   0  0  0  0  0  0  0  0  0  0  0  0
   -3.9276   -4.1782    2.8182 F   0  0  0  0  0  0  0  0  0  0  0  0
   -5.6496   -3.3645    1.7445 F   0  0  0  0  0  0  0  0  0  0  0  0
   -7.8422   -0.0979    0.8969 C   0  0  0  0  0  0  0  0  0  0  0  0
   -8.3971    0.9804   -0.0182 C   0  0  0  0  0  0  0  0  0  0  0  0
   -8.1748    1.1052   -3.2791 H   0  0  0  0  0  0  0  0  0  0  0  0
   -7.7276   -0.4713   -2.5780 H   0  0  0  0  0  0  0  0  0  0  0  0
   -9.3068    0.2843   -2.0420 H   0  0  0  0  0  0  0  0  0  0  0  0
   -5.5713    0.9324   -1.8469 H   0  0  0  0  0  0  0  0  0  0  0  0
   -6.3288   -0.5506   -1.1377 H   0  0  0  0  0  0  0  0  0  0  0  0
   -4.7021    0.5423    0.1444 H   0  0  0  0  0  0  0  0  0  0  0  0
   -5.7834    2.0020    0.3499 H   0  0  0  0  0  0  0  0  0  0  0  0
   -6.6125   -1.1255    2.9687 H   0  0  0  0  0  0  0  0  0  0  0  0
   -6.0587    0.5089    3.1773 H   0  0  0  0  0  0  0  0  0  0  0  0
   -4.2366    1.4522    2.1124 H   0  0  0  0  0  0  0  0  0  0  0  0
   -1.8455    1.2321    1.8242 H   0  0  0  0  0  0  0  0  0  0  0  0
    0.2250   -0.4025    2.4222 H   0  0  0  0  0  0  0  0  0  0  0  0
   -0.2057    1.4816    0.1799 H   0  0  0  0  0  0  0  0  0  0  0  0
    1.6139    3.2395    0.4400 H   0  0  0  0  0  0  0  0  0  0  0  0
    3.7871    3.5523    1.3531 H   0  0  0  0  0  0  0  0  0  0  0  0
    4.2431    3.5306   -0.3677 H   0  0  0  0  0  0  0  0  0  0  0  0
    5.1282    2.5188    0.8649 H   0  0  0  0  0  0  0  0  0  0  0  0
    5.0588   -0.5955    1.1400 H   0  0  0  0  0  0  0  0  0  0  0  0
    5.6354    2.1597   -3.4966 H   0  0  0  0  0  0  0  0  0  0  0  0
    7.9816    1.3581   -3.5045 H   0  0  0  0  0  0  0  0  0  0  0  0
   10.2230    1.0705   -2.6253 H   0  0  0  0  0  0  0  0  0  0  0  0
   12.1429   -0.3570   -3.1315 H   0  0  0  0  0  0  0  0  0  0  0  0
   11.9988   -2.7551   -2.6248 H   0  0  0  0  0  0  0  0  0  0  0  0
    8.0725   -2.3334   -1.0679 H   0  0  0  0  0  0  0  0  0  0  0  0
    2.6853   -1.6040   -0.0214 H   0  0  0  0  0  0  0  0  0  0  0  0
   -2.1543   -3.0004    2.4998 H   0  0  0  0  0  0  0  0  0  0  0  0
   -7.8832   -1.0891    0.4408 H   0  0  0  0  0  0  0  0  0  0  0  0
   -8.4673   -0.1004    1.8065 H   0  0  0  0  0  0  0  0  0  0  0  0
   -8.3709    1.9166    0.5816 H   0  0  0  0  0  0  0  0  0  0  0  0
   -9.4216    0.7041   -0.2759 H   0  0  0  0  0  0  0  0  0  0  0  0
  1  2  1  0
  2  3  1  0
  3  4  1  0
  4  5  1  0
  5  6  1  0
  6  7  1  0
  7  8  2  0
  8  9  1  0
  9 10  2  0
 10 11  1  0
 11 12  1  0
 12 13  2  0
 12 14  1  0
 14 15  2  0
 15 16  1  0
 16 17  2  0
 17 18  1  0
 17 19  1  0
 19 20  1  0
 20 21  1  0
 21 22  2  0
 22 23  1  0
 23 24  2  0
 24 25  1  0
 25 26  2  0
 25 27  1  0
 27 28  2  0
 28 29  1  0
 29 30  2  0
 30 31  1  0
 31 32  2  0
 19 33  2  0
 10 34  1  0
 34 35  2  0
 35 36  1  0
 36 37  1  0
 36 38  1  0
 36 39  1  0
  5 40  1  0
 40 41  1  0
 41  2  1  0
 35  7  1  0
 33 14  1  0
 26 21  1  0
 32 27  1  0
  1 42  1  0
  1 43  1  0
  1 44  1  0
  3 45  1  0
  3 46  1  0
  4 47  1  0
  4 48  1  0
  6 49  1  0
  6 50  1  0
  8 51  1  0
  9 52  1  0
 11 53  1  0
 15 54  1  0
 16 55  1  0
 18 56  1  0
 18 57  1  0
 18 58  1  0
 20 59  1  0
 23 60  1  0
 24 61  1  0
 28 62  1  0
 29 63  1  0
 30 64  1  0
 32 65  1  0
 33 66  1  0
 34 67  1  0
 40 68  1  0
 40 69  1  0
 41 70  1  0
 41 71  1  0
M  END
$$$$
[H]c1c([H])c(F)c([H])c(C(=C2C(=O)N([H])c3c([H])c([H])c(N([H])C4([H])C([H])([H])C([H])([H])N(C([H])([H])C([H])([H])[H])C([H])([H])C4([H])[H])c([H])c32)c2nc3c([H])c([H])c([H])c([H])c3n2[H])c1[H]
     RDKit          3D

 64 69  0  0  0  0  0  0  0  0999 V2000
    8.2393    0.1122   -0.5432 C   0  0  0  0  0  0  0  0  0  0  0  0
    7.4801   -0.6854    0.4992 C   0  0  0  0  0  0  0  0  0  0  0  0
    6.0954   -0.8893    0.1280 N   0  0  0  0  0  0  0  0  0  0  0  0
    5.4658   -1.6472    1.1990 C   0  0  0  0  0  0  0  0  0  0  0  0
    3.9763   -1.7195    0.9160 C   0  0  0  0  0  0  0  0  0  0  0  0
    3.7077   -0.9337   -0.3407 C   0  0  0  0  0  0  0  0  0  0  0  0
    4.4600   -1.6763   -1.4476 C   0  0  0  0  0  0  0  0  0  0  0  0
    5.9335   -1.6181   -1.0983 C   0  0  0  0  0  0  0  0  0  0  0  0
    2.3219   -0.7340   -0.6372 N   0  0  0  0  0  0  0  0  0  0  0  0
    1.5465    0.1062    0.2198 C   0  0  0  0  0  0  0  0  0  0  0  0
    2.0918    0.8467    1.2173 C   0  0  0  0  0  0  0  0  0  0  0  0
    1.2647    1.6147    1.9881 C   0  0  0  0  0  0  0  0  0  0  0  0
   -0.1091    1.6800    1.8070 C   0  0  0  0  0  0  0  0  0  0  0  0
   -1.1167    2.4096    2.4826 N   0  0  0  0  0  0  0  0  0  0  0  0
   -2.3570    2.0919    1.8560 C   0  0  0  0  0  0  0  0  0  0  0  0
   -3.4046    2.6231    2.2791 O   0  0  0  0  0  0  0  0  0  0  0  0
   -2.1392    1.1468    0.7683 C   0  0  0  0  0  0  0  0  0  0  0  0
   -3.0397    0.6380   -0.0143 C   0  0  0  0  0  0  0  0  0  0  0  0
   -4.4702    0.9923    0.1333 C   0  0  0  0  0  0  0  0  0  0  0  0
   -5.2054    0.8484    1.2228 N   0  0  0  0  0  0  0  0  0  0  0  0
   -6.4689    1.2550    1.0245 C   0  0  0  0  0  0  0  0  0  0  0  0
   -7.5773    1.2991    1.8408 C   0  0  0  0  0  0  0  0  0  0  0  0
   -8.7903    1.7699    1.3984 C   0  0  0  0  0  0  0  0  0  0  0  0
   -8.8629    2.2061    0.0809 C   0  0  0  0  0  0  0  0  0  0  0  0
   -7.7468    2.1570   -0.7261 C   0  0  0  0  0  0  0  0  0  0  0  0
   -6.5286    1.6851   -0.2840 C   0  0  0  0  0  0  0  0  0  0  0  0
   -5.2968    1.5167   -0.8122 N   0  0  0  0  0  0  0  0  0  0  0  0
   -2.8595   -0.3608   -1.0702 C   0  0  0  0  0  0  0  0  0  0  0  0
   -2.8050   -1.7267   -0.8328 C   0  0  0  0  0  0  0  0  0  0  0  0
   -2.6672   -2.6368   -1.8582 C   0  0  0  0  0  0  0  0  0  0  0  0
   -2.5790   -2.1880   -3.1737 C   0  0  0  0  0  0  0  0  0  0  0  0
   -2.6319   -0.8248   -3.4287 C   0  0  0  0  0  0  0  0  0  0  0  0
   -2.5434   -0.3938   -4.7101 F   0  0  0  0  0  0  0  0  0  0  0  0
   -2.7724    0.0803   -2.3675 C   0  0  0  0  0  0  0  0  0  0  0  0
   -0.6694    0.9187    0.7825 C   0  0  0  0  0  0  0  0  0  0  0  0
    0.1655    0.1553    0.0173 C   0  0  0  0  0  0  0  0  0  0  0  0
    7.5019    0.7239   -1.0992 H   0  0  0  0  0  0  0  0  0  0  0  0
    8.8504   -0.5341   -1.1700 H   0  0  0  0  0  0  0  0  0  0  0  0
    8.9236    0.7991    0.0294 H   0  0  0  0  0  0  0  0  0  0  0  0
    7.9310   -1.6869    0.6619 H   0  0  0  0  0  0  0  0  0  0  0  0
    7.4634   -0.1244    1.4681 H   0  0  0  0  0  0  0  0  0  0  0  0
    5.9262   -2.6546    1.1948 H   0  0  0  0  0  0  0  0  0  0  0  0
    5.6857   -1.1498    2.1693 H   0  0  0  0  0  0  0  0  0  0  0  0
    3.7461   -2.7871    0.6574 H   0  0  0  0  0  0  0  0  0  0  0  0
    3.4331   -1.4298    1.8006 H   0  0  0  0  0  0  0  0  0  0  0  0
    4.2008    0.0785   -0.2351 H   0  0  0  0  0  0  0  0  0  0  0  0
    4.1321   -2.7357   -1.3528 H   0  0  0  0  0  0  0  0  0  0  0  0
    4.2314   -1.3087   -2.4477 H   0  0  0  0  0  0  0  0  0  0  0  0
    6.3509   -2.6550   -1.0155 H   0  0  0  0  0  0  0  0  0  0  0  0
    6.5117   -1.1523   -1.9377 H   0  0  0  0  0  0  0  0  0  0  0  0
    1.9175   -1.2076   -1.4707 H   0  0  0  0  0  0  0  0  0  0  0  0
    3.1466    0.8578    1.4162 H   0  0  0  0  0  0  0  0  0  0  0  0
    1.6970    2.2099    2.7887 H   0  0  0  0  0  0  0  0  0  0  0  0
   -0.9270    3.0467    3.2852 H   0  0  0  0  0  0  0  0  0  0  0  0
   -7.5313    0.9571    2.8774 H   0  0  0  0  0  0  0  0  0  0  0  0
   -9.6566    1.7995    2.0578 H   0  0  0  0  0  0  0  0  0  0  0  0
   -9.8017    2.5841   -0.3029 H   0  0  0  0  0  0  0  0  0  0  0  0
   -7.8129    2.4986   -1.7466 H   0  0  0  0  0  0  0  0  0  0  0  0
   -5.0195    1.7479   -1.7815 H   0  0  0  0  0  0  0  0  0  0  0  0
   -2.8716   -2.1011    0.1759 H   0  0  0  0  0  0  0  0  0  0  0  0
   -2.6243   -3.7134   -1.6812 H   0  0  0  0  0  0  0  0  0  0  0  0
   -2.4700   -2.8739   -4.0038 H   0  0  0  0  0  0  0  0  0  0  0  0
   -2.8055    1.1223   -2.6485 H   0  0  0  0  0  0  0  0  0  0  0  0
   -0.2363   -0.4298   -0.7924 H   0  0  0  0  0  0  0  0  0  0  0  0
  1  2  1  0
  2  3  1  0
  3  4  1  0
  4  5  1  0
  5  6  1  0
  6  7  1  0
  7  8  1  0
  6  9  1  0
  9 10  1  0
 10 11  2  0
 11 12  1  0
 12 13  2  0
 13 14  1  0
 14 15  1  0
 15 16  2  0
 15 17  1  0
 17 18  2  3
 18 19  1  0
 19 20  2  0
 20 21  1  0
 21 22  2  0
 22 23  1  0
 23 24  2  0
 24 25  1  0
 25 26  2  0
 26 27  1  0
 18 28  1  0
 28 29  2  0
 29 30  1  0
 30 31  2  0
 31 32  1  0
 32 33  1  0
 32 34  2  0
 17 35  1  0
 35 36  2  0
  8  3  1  0
 36 10  1  0
 35 13  1  0
 27 19  1  0
 34 28  1  0
 26 21  1  0
  1 37  1  0
  1 38  1  0
  1 39  1  0
  2 40  1  0
  2 41  1  0
  4 42  1  0
  4 43  1  0
  5 44  1  0
  5 45  1  0
  6 46  1  0
  7 47  1  0
  7 48  1  0
  8 49  1  0
  8 50  1  0
  9 51  1  0
 11 52  1  0
 12 53  1  0
 14 54  1  0
 22 55  1  0
 23 56  1  0
 24 57  1  0
 25 58  1  0
 27 59  1  0
 29 60  1  0
 30 61  1  0
 31 62  1  0
 34 63  1  0
 36 64  1  0
M  END
$$$$
[H]c1nc([H])n([H])c1C#Cc1c([H])c(C(=O)N([H])c2c([H])c([H])c(C([H])([H])N3C([H])([H])C([H])([H])N(C([H])([H])[H])C([H])([H])C3([H])[H])c(C(F)(F)F)c2[H])c([H])c([H])c1C([H])([H])[H]
     RDKit          3D

 61 64  0  0  0  0  0  0  0  0999 V2000
   -7.6406    0.2362   -2.9984 C   0  0  0  0  0  0  0  0  0  0  0  0
   -7.2718    0.8912   -1.7607 N   0  0  0  0  0  0  0  0  0  0  0  0
   -5.9861    1.5003   -1.8299 C   0  0  0  0  0  0  0  0  0  0  0  0
   -4.8411    0.6253   -1.4402 C   0  0  0  0  0  0  0  0  0  0  0  0
   -5.0929    0.0524   -0.1756 N   0  0  0  0  0  0  0  0  0  0  0  0
   -4.4225    0.5983    0.9529 C   0  0  0  0  0  0  0  0  0  0  0  0
   -2.9700    0.4280    0.9989 C   0  0  0  0  0  0  0  0  0  0  0  0
   -2.2538   -0.2831    0.0469 C   0  0  0  0  0  0  0  0  0  0  0  0
   -0.8908   -0.4576    0.1249 C   0  0  0  0  0  0  0  0  0  0  0  0
   -0.1259    0.0738    1.1786 C   0  0  0  0  0  0  0  0  0  0  0  0
    1.2750   -0.1328    1.1766 N   0  0  0  0  0  0  0  0  0  0  0  0
    2.0855    0.0575    2.3071 C   0  0  0  0  0  0  0  0  0  0  0  0
    1.7191    0.4142    3.4428 O   0  0  0  0  0  0  0  0  0  0  0  0
    3.5422   -0.1923    2.1404 C   0  0  0  0  0  0  0  0  0  0  0  0
    4.3178   -0.3897    3.2648 C   0  0  0  0  0  0  0  0  0  0  0  0
    5.6705   -0.6187    3.1918 C   0  0  0  0  0  0  0  0  0  0  0  0
    6.2367   -0.6450    1.9368 C   0  0  0  0  0  0  0  0  0  0  0  0
    7.6978   -0.8920    1.8515 C   0  0  0  0  0  0  0  0  0  0  0  0
    5.5220   -0.4562    0.7816 C   0  0  0  0  0  0  0  0  0  0  0  0
    4.1528   -0.2274    0.9091 C   0  0  0  0  0  0  0  0  0  0  0  0
    6.1374   -0.4878   -0.5269 C   0  0  0  0  0  0  0  0  0  0  0  0
    6.6318   -0.5097   -1.6269 C   0  0  0  0  0  0  0  0  0  0  0  0
    7.1972   -0.5332   -2.9463 C   0  0  0  0  0  0  0  0  0  0  0  0
    6.4459   -0.6604   -4.0949 C   0  0  0  0  0  0  0  0  0  0  0  0
    7.2770   -0.6468   -5.1538 N   0  0  0  0  0  0  0  0  0  0  0  0
    8.5384   -0.5137   -4.6998 C   0  0  0  0  0  0  0  0  0  0  0  0
    8.4798   -0.4445   -3.3389 N   0  0  0  0  0  0  0  0  0  0  0  0
   -0.8375    0.7698    2.1077 C   0  0  0  0  0  0  0  0  0  0  0  0
   -2.2354    0.9546    2.0368 C   0  0  0  0  0  0  0  0  0  0  0  0
   -2.9007    1.7460    3.1099 C   0  0  0  0  0  0  0  0  0  0  0  0
   -3.5118    2.8890    2.6355 F   0  0  0  0  0  0  0  0  0  0  0  0
   -3.7958    0.9598    3.8526 F   0  0  0  0  0  0  0  0  0  0  0  0
   -1.9219    2.0953    4.0599 F   0  0  0  0  0  0  0  0  0  0  0  0
   -6.3696   -0.4791    0.0908 C   0  0  0  0  0  0  0  0  0  0  0  0
   -7.5243    0.0872   -0.6144 C   0  0  0  0  0  0  0  0  0  0  0  0
   -7.4132   -0.8506   -2.9270 H   0  0  0  0  0  0  0  0  0  0  0  0
   -8.7378    0.3500   -3.1467 H   0  0  0  0  0  0  0  0  0  0  0  0
   -7.0827    0.6181   -3.8719 H   0  0  0  0  0  0  0  0  0  0  0  0
   -5.8179    1.7932   -2.9084 H   0  0  0  0  0  0  0  0  0  0  0  0
   -5.9579    2.4766   -1.2791 H   0  0  0  0  0  0  0  0  0  0  0  0
   -4.6583   -0.1528   -2.2040 H   0  0  0  0  0  0  0  0  0  0  0  0
   -3.9445    1.2779   -1.3793 H   0  0  0  0  0  0  0  0  0  0  0  0
   -4.7761    1.6474    1.0592 H   0  0  0  0  0  0  0  0  0  0  0  0
   -4.8707    0.0713    1.8524 H   0  0  0  0  0  0  0  0  0  0  0  0
   -2.7945   -0.7307   -0.7838 H   0  0  0  0  0  0  0  0  0  0  0  0
   -0.3426   -1.0216   -0.6342 H   0  0  0  0  0  0  0  0  0  0  0  0
    1.6998   -0.4487    0.2536 H   0  0  0  0  0  0  0  0  0  0  0  0
    3.8216   -0.3600    4.2424 H   0  0  0  0  0  0  0  0  0  0  0  0
    6.2070   -0.7636    4.1174 H   0  0  0  0  0  0  0  0  0  0  0  0
    8.2574    0.0721    1.8906 H   0  0  0  0  0  0  0  0  0  0  0  0
    7.9070   -1.3638    0.8688 H   0  0  0  0  0  0  0  0  0  0  0  0
    8.0298   -1.5442    2.6963 H   0  0  0  0  0  0  0  0  0  0  0  0
    3.6229   -0.0797   -0.0031 H   0  0  0  0  0  0  0  0  0  0  0  0
    5.3532   -0.7569   -4.1438 H   0  0  0  0  0  0  0  0  0  0  0  0
    9.4680   -0.4640   -5.2503 H   0  0  0  0  0  0  0  0  0  0  0  0
    9.2712   -0.3399   -2.6677 H   0  0  0  0  0  0  0  0  0  0  0  0
   -0.3357    1.2221    2.9408 H   0  0  0  0  0  0  0  0  0  0  0  0
   -6.5535   -0.3881    1.2037 H   0  0  0  0  0  0  0  0  0  0  0  0
   -6.3111   -1.5993   -0.0612 H   0  0  0  0  0  0  0  0  0  0  0  0
   -8.2064   -0.7473   -0.9346 H   0  0  0  0  0  0  0  0  0  0  0  0
   -8.1690    0.7058    0.0782 H   0  0  0  0  0  0  0  0  0  0  0  0
  1  2  1  0
  2  3  1  0
  3  4  1  0
  4  5  1  0
  5  6  1  0
  6  7  1  0
  7  8  2  0
  8  9  1  0
  9 10  2  0
 10 11  1  0
 11 12  1  0
 12 13  2  0
 12 14  1  0
 14 15  2  0
 15 16  1  0
 16 17  2  0
 17 18  1  0
 17 19  1  0
 19 20  2  0
 19 21  1  0
 21 22  3  0
 22 23  1  0
 23 24  2  0
 24 25  1  0
 25 26  2  0
 26 27  1  0
 10 28  1  0
 28 29  2  0
 29 30  1  0
 30 31  1  0
 30 32  1  0
 30 33  1  0
  5 34  1  0
 34 35  1  0
 35  2  1  0
 29  7  1  0
 20 14  1  0
 27 23  1  0
  1 36  1  0
  1 37  1  0
  1 38  1  0
  3 39  1  0
  3 40  1  0
  4 41  1  0
  4 42  1  0
  6 43  1  0
  6 44  1  0
  8 45  1  0
  9 46  1  0
 11 47  1  0
 15 48  1  0
 16 49  1  0
 18 50  1  0
 18 51  1  0
 18 52  1  0
 20 53  1  0
 24 54  1  0
 26 55  1  0
 27 56  1  0
 28 57  1  0
 34 58  1  0
 34 59  1  0
 35 60  1  0
 35 61  1  0
M  END
$$$$
[H]c1nc(N([H])c2c([H])c(N([H])C(=O)c3c([H])c([H])c(C([H])([H])N4C([H])([H])C([H])([H])N(C([H])([H])[H])C([H])([H])C4([H])[H])c(C(F)(F)F)c3[H])c([H])c([H])c2C([H])([H])[H])nc(-c2c([H])nc([H])c([H])c2[H])c1[H]
     RDKit          3D

 71 75  0  0  0  0  0  0  0  0999 V2000
   -9.9347    0.2361   -1.3530 C   0  0  0  0  0  0  0  0  0  0  0  0
   -8.7315   -0.2431   -2.0052 N   0  0  0  0  0  0  0  0  0  0  0  0
   -8.3643   -1.4998   -1.3435 C   0  0  0  0  0  0  0  0  0  0  0  0
   -7.7519   -1.1751   -0.0144 C   0  0  0  0  0  0  0  0  0  0  0  0
   -6.3847   -0.6145   -0.1490 N   0  0  0  0  0  0  0  0  0  0  0  0
   -5.4582   -1.7716   -0.2410 C   0  0  0  0  0  0  0  0  0  0  0  0
   -4.0923   -1.3053   -0.0157 C   0  0  0  0  0  0  0  0  0  0  0  0
   -3.8574   -0.0110    0.3758 C   0  0  0  0  0  0  0  0  0  0  0  0
   -2.5723    0.4484    0.6525 C   0  0  0  0  0  0  0  0  0  0  0  0
   -1.4841   -0.3764    0.5464 C   0  0  0  0  0  0  0  0  0  0  0  0
   -1.7408   -1.6721    0.1532 C   0  0  0  0  0  0  0  0  0  0  0  0
   -2.9957   -2.1554   -0.1275 C   0  0  0  0  0  0  0  0  0  0  0  0
   -3.2301   -3.5575   -0.5510 C   0  0  0  0  0  0  0  0  0  0  0  0
   -3.7929   -3.6608   -1.8005 F   0  0  0  0  0  0  0  0  0  0  0  0
   -1.9900   -4.1845   -0.5944 F   0  0  0  0  0  0  0  0  0  0  0  0
   -3.9703   -4.2573    0.3945 F   0  0  0  0  0  0  0  0  0  0  0  0
   -0.1205    0.0746    0.8363 C   0  0  0  0  0  0  0  0  0  0  0  0
    0.7874   -0.7156    0.5100 O   0  0  0  0  0  0  0  0  0  0  0  0
    0.1496    1.3030    1.4367 N   0  0  0  0  0  0  0  0  0  0  0  0
    1.3829    1.8862    1.7753 C   0  0  0  0  0  0  0  0  0  0  0  0
    1.3784    2.9682    2.6655 C   0  0  0  0  0  0  0  0  0  0  0  0
    2.5562    3.5802    3.0131 C   0  0  0  0  0  0  0  0  0  0  0  0
    3.7559    3.1427    2.4950 C   0  0  0  0  0  0  0  0  0  0  0  0
    5.0213    3.8036    2.8736 C   0  0  0  0  0  0  0  0  0  0  0  0
    3.8205    2.0721    1.6058 C   0  0  0  0  0  0  0  0  0  0  0  0
    5.0640    1.6812    1.1133 N   0  0  0  0  0  0  0  0  0  0  0  0
    5.4168    0.6392    0.2403 C   0  0  0  0  0  0  0  0  0  0  0  0
    4.5806   -0.2402   -0.3245 N   0  0  0  0  0  0  0  0  0  0  0  0
    4.9838   -1.2125   -1.1507 C   0  0  0  0  0  0  0  0  0  0  0  0
    6.3432   -1.3501   -1.4657 C   0  0  0  0  0  0  0  0  0  0  0  0
    7.2134   -0.4546   -0.8935 C   0  0  0  0  0  0  0  0  0  0  0  0
    6.7169    0.4847   -0.0790 N   0  0  0  0  0  0  0  0  0  0  0  0
    8.6702   -0.5095   -1.1601 C   0  0  0  0  0  0  0  0  0  0  0  0
    9.1974   -1.4582   -1.9850 C   0  0  0  0  0  0  0  0  0  0  0  0
   10.5790   -1.4717   -2.2091 C   0  0  0  0  0  0  0  0  0  0  0  0
   11.4031   -0.5478   -1.6125 C   0  0  0  0  0  0  0  0  0  0  0  0
   10.8420    0.3687   -0.8075 N   0  0  0  0  0  0  0  0  0  0  0  0
    9.5195    0.4071   -0.5731 C   0  0  0  0  0  0  0  0  0  0  0  0
    2.6286    1.4802    1.2763 C   0  0  0  0  0  0  0  0  0  0  0  0
   -6.3661    0.0487   -1.4754 C   0  0  0  0  0  0  0  0  0  0  0  0
   -7.6847    0.7475   -1.7423 C   0  0  0  0  0  0  0  0  0  0  0  0
  -10.8400    0.0820   -1.9782 H   0  0  0  0  0  0  0  0  0  0  0  0
  -10.1219   -0.3026   -0.4045 H   0  0  0  0  0  0  0  0  0  0  0  0
   -9.8649    1.3283   -1.1812 H   0  0  0  0  0  0  0  0  0  0  0  0
   -7.6639   -2.0729   -1.9562 H   0  0  0  0  0  0  0  0  0  0  0  0
   -9.2658   -2.1094   -1.1456 H   0  0  0  0  0  0  0  0  0  0  0  0
   -7.6343   -2.1192    0.5481 H   0  0  0  0  0  0  0  0  0  0  0  0
   -8.3505   -0.4856    0.5888 H   0  0  0  0  0  0  0  0  0  0  0  0
   -5.7781   -2.5230    0.4961 H   0  0  0  0  0  0  0  0  0  0  0  0
   -5.6613   -2.1828   -1.2517 H   0  0  0  0  0  0  0  0  0  0  0  0
   -4.6678    0.6957    0.5168 H   0  0  0  0  0  0  0  0  0  0  0  0
   -2.4771    1.4610    0.9446 H   0  0  0  0  0  0  0  0  0  0  0  0
   -0.9071   -2.3603    0.0566 H   0  0  0  0  0  0  0  0  0  0  0  0
   -0.7059    1.9212    1.6860 H   0  0  0  0  0  0  0  0  0  0  0  0
    0.4539    3.3373    3.0924 H   0  0  0  0  0  0  0  0  0  0  0  0
    2.5407    4.4303    3.7141 H   0  0  0  0  0  0  0  0  0  0  0  0
    5.7606    3.0867    3.2981 H   0  0  0  0  0  0  0  0  0  0  0  0
    4.8047    4.5194    3.6921 H   0  0  0  0  0  0  0  0  0  0  0  0
    5.4494    4.4108    2.0471 H   0  0  0  0  0  0  0  0  0  0  0  0
    5.9212    2.2641    1.4427 H   0  0  0  0  0  0  0  0  0  0  0  0
    4.2947   -1.9013   -1.5878 H   0  0  0  0  0  0  0  0  0  0  0  0
    6.6728   -2.1241   -2.1247 H   0  0  0  0  0  0  0  0  0  0  0  0
    8.6112   -2.2088   -2.4823 H   0  0  0  0  0  0  0  0  0  0  0  0
   11.0325   -2.2048   -2.8536 H   0  0  0  0  0  0  0  0  0  0  0  0
   12.4912   -0.5498   -1.7822 H   0  0  0  0  0  0  0  0  0  0  0  0
    9.0900    1.1545    0.0789 H   0  0  0  0  0  0  0  0  0  0  0  0
    2.6027    0.6574    0.5857 H   0  0  0  0  0  0  0  0  0  0  0  0
   -6.1870   -0.7063   -2.2777 H   0  0  0  0  0  0  0  0  0  0  0  0
   -5.5974    0.8055   -1.4807 H   0  0  0  0  0  0  0  0  0  0  0  0
   -7.5458    1.3496   -2.6604 H   0  0  0  0  0  0  0  0  0  0  0  0
   -7.9450    1.4195   -0.9167 H   0  0  0  0  0  0  0  0  0  0  0  0
  1  2  1  0
  2  3  1  0
  3  4  1  0
  4  5  1  0
  5  6  1  0
  6  7  1  0
  7  8  2  0
  8  9  1  0
  9 10  2  0
 10 11  1  0
 11 12  2  0
 12 13  1  0
 13 14  1  0
 13 15  1  0
 13 16  1  0
 10 17  1  0
 17 18  2  0
 17 19  1  0
 19 20  1  0
 20 21  2  0
 21 22  1  0
 22 23  2  0
 23 24  1  0
 23 25  1  0
 25 26  1  0
 26 27  1  0
 27 28  2  0
 28 29  1  0
 29 30  2  0
 30 31  1  0
 31 32  2  0
 31 33  1  0
 33 34  2  0
 34 35  1  0
 35 36  2  0
 36 37  1  0
 37 38  2  0
 25 39  2  0
  5 40  1  0
 40 41  1  0
 41  2  1  0
 12  7  1  0
 39 20  1  0
 32 27  1  0
 38 33  1  0
  1 42  1  0
  1 43  1  0
  1 44  1  0
  3 45  1  0
  3 46  1  0
  4 47  1  0
  4 48  1  0
  6 49  1  0
  6 50  1  0
  8 51  1  0
  9 52  1  0
 11 53  1  0
 19 54  1  0
 21 55  1  0
 22 56  1  0
 24 57  1  0
 24 58  1  0
 24 59  1  0
 26 60  1  0
 29 61  1  0
 30 62  1  0
 34 63  1  0
 35 64  1  0
 36 65  1  0
 38 66  1  0
 39 67  1  0
 40 68  1  0
 40 69  1  0
 41 70  1  0
 41 71  1  0
M  END
$$$$
[H]c1nc(N([H])c2c([H])c(N([H])C(=O)c3c([H])c([H])c(C([H])([H])N4C([H])([H])C([H])([H])N(C([H])([H])[H])C([H])([H])C4([H])[H])c([H])c3[H])c([H])c([H])c2C([H])([H])[H])nc(-c2c([H])nc([H])c([H])c2[H])c1[H]
     RDKit          3D

 68 72  0  0  0  0  0  0  0  0999 V2000
   -8.7479    3.4266    0.9293 C   0  0  0  0  0  0  0  0  0  0  0  0
   -7.3650    2.9906    0.9461 N   0  0  0  0  0  0  0  0  0  0  0  0
   -6.6451    3.4513   -0.2269 C   0  0  0  0  0  0  0  0  0  0  0  0
   -6.5764    2.2780   -1.1806 C   0  0  0  0  0  0  0  0  0  0  0  0
   -5.6380    1.2558   -0.6870 N   0  0  0  0  0  0  0  0  0  0  0  0
   -4.2736    1.6578   -1.0098 C   0  0  0  0  0  0  0  0  0  0  0  0
   -3.2946    0.6359   -0.5726 C   0  0  0  0  0  0  0  0  0  0  0  0
   -2.0253    1.0618   -0.2539 C   0  0  0  0  0  0  0  0  0  0  0  0
   -1.0453    0.1713    0.1570 C   0  0  0  0  0  0  0  0  0  0  0  0
   -1.3755   -1.1564    0.2384 C   0  0  0  0  0  0  0  0  0  0  0  0
   -2.6567   -1.5624   -0.0864 C   0  0  0  0  0  0  0  0  0  0  0  0
   -3.6359   -0.6917   -0.4943 C   0  0  0  0  0  0  0  0  0  0  0  0
   -0.3686   -2.1375    0.6612 C   0  0  0  0  0  0  0  0  0  0  0  0
   -0.8262   -3.2557    0.9933 O   0  0  0  0  0  0  0  0  0  0  0  0
    0.9922   -1.8076    0.6770 N   0  0  0  0  0  0  0  0  0  0  0  0
    2.0504   -2.6623    1.0701 C   0  0  0  0  0  0  0  0  0  0  0  0
    1.8977   -3.8196    1.7948 C   0  0  0  0  0  0  0  0  0  0  0  0
    2.9989   -4.6090    2.1159 C   0  0  0  0  0  0  0  0  0  0  0  0
    4.2721   -4.2912    1.7405 C   0  0  0  0  0  0  0  0  0  0  0  0
    5.4062   -5.1875    2.1222 C   0  0  0  0  0  0  0  0  0  0  0  0
    4.4689   -3.1165    0.9995 C   0  0  0  0  0  0  0  0  0  0  0  0
    5.7802   -2.8139    0.6265 N   0  0  0  0  0  0  0  0  0  0  0  0
    6.3053   -1.7281   -0.1008 C   0  0  0  0  0  0  0  0  0  0  0  0
    7.6596   -1.6724   -0.3330 N   0  0  0  0  0  0  0  0  0  0  0  0
    8.2649   -0.7078   -0.9985 C   0  0  0  0  0  0  0  0  0  0  0  0
    7.5107    0.3436   -1.5163 C   0  0  0  0  0  0  0  0  0  0  0  0
    6.1516    0.3040   -1.2930 C   0  0  0  0  0  0  0  0  0  0  0  0
    5.6123   -0.7167   -0.6035 N   0  0  0  0  0  0  0  0  0  0  0  0
    5.2995    1.3880   -1.8159 C   0  0  0  0  0  0  0  0  0  0  0  0
    3.9372    1.3924   -1.6203 C   0  0  0  0  0  0  0  0  0  0  0  0
    3.1716    2.4275   -2.1260 C   0  0  0  0  0  0  0  0  0  0  0  0
    3.7421    3.4579   -2.8234 C   0  0  0  0  0  0  0  0  0  0  0  0
    5.0550    3.4524   -3.0112 N   0  0  0  0  0  0  0  0  0  0  0  0
    5.8318    2.4362   -2.5183 C   0  0  0  0  0  0  0  0  0  0  0  0
    3.3751   -2.3514    0.6918 C   0  0  0  0  0  0  0  0  0  0  0  0
   -5.8097    1.1620    0.7622 C   0  0  0  0  0  0  0  0  0  0  0  0
   -7.2387    1.5701    1.1168 C   0  0  0  0  0  0  0  0  0  0  0  0
   -9.1142    3.5221    1.9808 H   0  0  0  0  0  0  0  0  0  0  0  0
   -9.3769    2.7072    0.3676 H   0  0  0  0  0  0  0  0  0  0  0  0
   -8.7643    4.4440    0.4847 H   0  0  0  0  0  0  0  0  0  0  0  0
   -5.6344    3.7578    0.0558 H   0  0  0  0  0  0  0  0  0  0  0  0
   -7.1406    4.3081   -0.7102 H   0  0  0  0  0  0  0  0  0  0  0  0
   -6.1750    2.5841   -2.1694 H   0  0  0  0  0  0  0  0  0  0  0  0
   -7.5469    1.7926   -1.3113 H   0  0  0  0  0  0  0  0  0  0  0  0
   -4.0371    2.6053   -0.4506 H   0  0  0  0  0  0  0  0  0  0  0  0
   -4.1471    1.8144   -2.0969 H   0  0  0  0  0  0  0  0  0  0  0  0
   -1.7746    2.1248   -0.3233 H   0  0  0  0  0  0  0  0  0  0  0  0
   -0.0855    0.5909    0.3886 H   0  0  0  0  0  0  0  0  0  0  0  0
   -2.8828   -2.6144   -0.0116 H   0  0  0  0  0  0  0  0  0  0  0  0
   -4.6466   -1.0312   -0.7500 H   0  0  0  0  0  0  0  0  0  0  0  0
    1.2887   -0.8278    0.3716 H   0  0  0  0  0  0  0  0  0  0  0  0
    0.9348   -4.1347    2.1386 H   0  0  0  0  0  0  0  0  0  0  0  0
    2.8613   -5.5326    2.6959 H   0  0  0  0  0  0  0  0  0  0  0  0
    5.0687   -5.9213    2.8820 H   0  0  0  0  0  0  0  0  0  0  0  0
    6.2218   -4.6050    2.6395 H   0  0  0  0  0  0  0  0  0  0  0  0
    5.8132   -5.7440    1.2725 H   0  0  0  0  0  0  0  0  0  0  0  0
    6.5390   -3.5258    0.9416 H   0  0  0  0  0  0  0  0  0  0  0  0
    9.3489   -0.6840   -1.1721 H   0  0  0  0  0  0  0  0  0  0  0  0
    7.9899    1.1420   -2.0641 H   0  0  0  0  0  0  0  0  0  0  0  0
    3.4963    0.5760   -1.0694 H   0  0  0  0  0  0  0  0  0  0  0  0
    2.0921    2.3921   -1.9481 H   0  0  0  0  0  0  0  0  0  0  0  0
    3.1033    4.2511   -3.2035 H   0  0  0  0  0  0  0  0  0  0  0  0
    6.8769    2.5525   -2.7398 H   0  0  0  0  0  0  0  0  0  0  0  0
    3.4595   -1.4371    0.1220 H   0  0  0  0  0  0  0  0  0  0  0  0
   -5.0883    1.8684    1.2308 H   0  0  0  0  0  0  0  0  0  0  0  0
   -5.5964    0.1363    1.1045 H   0  0  0  0  0  0  0  0  0  0  0  0
   -7.3999    1.3363    2.1888 H   0  0  0  0  0  0  0  0  0  0  0  0
   -7.9447    0.9768    0.5168 H   0  0  0  0  0  0  0  0  0  0  0  0
  1  2  1  0
  2  3  1  0
  3  4  1  0
  4  5  1  0
  5  6  1  0
  6  7  1  0
  7  8  2  0
  8  9  1  0
  9 10  2  0
 10 11  1  0
 11 12  2  0
 10 13  1  0
 13 14  2  0
 13 15  1  0
 15 16  1  0
 16 17  2  0
 17 18  1  0
 18 19  2  0
 19 20  1  0
 19 21  1  0
 21 22  1  0
 22 23  1  0
 23 24  2  0
 24 25  1  0
 25 26  2  0
 26 27  1  0
 27 28  2  0
 27 29  1  0
 29 30  2  0
 30 31  1  0
 31 32  2  0
 32 33  1  0
 33 34  2  0
 21 35  2  0
  5 36  1  0
 36 37  1  0
 37  2  1  0
 12  7  1  0
 35 16  1  0
 28 23  1  0
 34 29  1  0
  1 38  1  0
  1 39  1  0
  1 40  1  0
  3 41  1  0
  3 42  1  0
  4 43  1  0
  4 44  1  0
  6 45  1  0
  6 46  1  0
  8 47  1  0
  9 48  1  0
 11 49  1  0
 12 50  1  0
 15 51  1  0
 17 52  1  0
 18 53  1  0
 20 54  1  0
 20 55  1  0
 20 56  1  0
 22 57  1  0
 25 58  1  0
 26 59  1  0
 30 60  1  0
 31 61  1  0
 32 62  1  0
 34 63  1  0
 35 64  1  0
 36 65  1  0
 36 66  1  0
 37 67  1  0
 37 68  1  0
M  END
$$$$
[H]c1nc([H])c(C#Cc2c([H])c(C(=O)N([H])c3c([H])c([H])c(C([H])([H])N4C([H])([H])C([H])([H])N(C([H])([H])[H])C([H])([H])C4([H])[H])c(C(F)(F)F)c3[H])c([H])c([H])c2C([H])([H])[H])c([H])c1[H]
     RDKit          3D

 63 66  0  0  0  0  0  0  0  0999 V2000
   -9.2322   -0.7461    0.9563 C   0  0  0  0  0  0  0  0  0  0  0  0
   -7.8651   -0.3495    0.6787 N   0  0  0  0  0  0  0  0  0  0  0  0
   -7.5369   -0.7020   -0.6888 C   0  0  0  0  0  0  0  0  0  0  0  0
   -6.1378   -0.2704   -1.0601 C   0  0  0  0  0  0  0  0  0  0  0  0
   -5.7888    1.0113   -0.5421 N   0  0  0  0  0  0  0  0  0  0  0  0
   -4.8235    1.0418    0.5027 C   0  0  0  0  0  0  0  0  0  0  0  0
   -3.4699    0.6253    0.1952 C   0  0  0  0  0  0  0  0  0  0  0  0
   -3.1016    0.2789   -1.0784 C   0  0  0  0  0  0  0  0  0  0  0  0
   -1.8289   -0.0940   -1.4238 C   0  0  0  0  0  0  0  0  0  0  0  0
   -0.8185   -0.1384   -0.4624 C   0  0  0  0  0  0  0  0  0  0  0  0
    0.4790   -0.5296   -0.8045 N   0  0  0  0  0  0  0  0  0  0  0  0
    1.6294   -0.4585   -0.0358 C   0  0  0  0  0  0  0  0  0  0  0  0
    1.6915   -0.0101    1.1283 O   0  0  0  0  0  0  0  0  0  0  0  0
    2.9350   -0.9374   -0.5786 C   0  0  0  0  0  0  0  0  0  0  0  0
    2.9939   -1.8172   -1.6215 C   0  0  0  0  0  0  0  0  0  0  0  0
    4.2134   -2.2249   -2.0976 C   0  0  0  0  0  0  0  0  0  0  0  0
    5.3729   -1.7452   -1.5215 C   0  0  0  0  0  0  0  0  0  0  0  0
    6.6907   -2.1871   -2.0378 C   0  0  0  0  0  0  0  0  0  0  0  0
    5.3493   -0.8558   -0.4667 C   0  0  0  0  0  0  0  0  0  0  0  0
    4.1072   -0.4711   -0.0181 C   0  0  0  0  0  0  0  0  0  0  0  0
    6.5252   -0.3310    0.1632 C   0  0  0  0  0  0  0  0  0  0  0  0
    7.5313    0.1093    0.6783 C   0  0  0  0  0  0  0  0  0  0  0  0
    8.7365    0.6237    1.2684 C   0  0  0  0  0  0  0  0  0  0  0  0
    9.9063    0.7764    0.5300 C   0  0  0  0  0  0  0  0  0  0  0  0
   11.0636    1.2697    1.0948 C   0  0  0  0  0  0  0  0  0  0  0  0
   11.0371    1.6107    2.4148 C   0  0  0  0  0  0  0  0  0  0  0  0
    9.9384    1.4793    3.1538 N   0  0  0  0  0  0  0  0  0  0  0  0
    8.8016    0.9938    2.5954 C   0  0  0  0  0  0  0  0  0  0  0  0
   -1.1686    0.2009    0.7966 C   0  0  0  0  0  0  0  0  0  0  0  0
   -2.4774    0.5835    1.1486 C   0  0  0  0  0  0  0  0  0  0  0  0
   -2.8110    0.9376    2.5401 C   0  0  0  0  0  0  0  0  0  0  0  0
   -1.6335    0.8319    3.3051 F   0  0  0  0  0  0  0  0  0  0  0  0
   -3.6626    0.0072    3.1472 F   0  0  0  0  0  0  0  0  0  0  0  0
   -3.2256    2.2327    2.7194 F   0  0  0  0  0  0  0  0  0  0  0  0
   -6.9464    1.7832   -0.1054 C   0  0  0  0  0  0  0  0  0  0  0  0
   -7.7655    1.0668    0.9257 C   0  0  0  0  0  0  0  0  0  0  0  0
   -9.3404   -1.8506    0.9819 H   0  0  0  0  0  0  0  0  0  0  0  0
   -9.5502   -0.2801    1.9233 H   0  0  0  0  0  0  0  0  0  0  0  0
   -9.8736   -0.3874    0.1117 H   0  0  0  0  0  0  0  0  0  0  0  0
   -8.2827   -0.2955   -1.3962 H   0  0  0  0  0  0  0  0  0  0  0  0
   -7.5744   -1.8088   -0.7598 H   0  0  0  0  0  0  0  0  0  0  0  0
   -5.4316   -1.0800   -0.8122 H   0  0  0  0  0  0  0  0  0  0  0  0
   -6.1412   -0.1907   -2.1873 H   0  0  0  0  0  0  0  0  0  0  0  0
   -5.2626    0.5559    1.4027 H   0  0  0  0  0  0  0  0  0  0  0  0
   -4.7573    2.1356    0.8112 H   0  0  0  0  0  0  0  0  0  0  0  0
   -3.8073    0.2894   -1.9257 H   0  0  0  0  0  0  0  0  0  0  0  0
   -1.5651   -0.3649   -2.4471 H   0  0  0  0  0  0  0  0  0  0  0  0
    0.5919   -0.9334   -1.7928 H   0  0  0  0  0  0  0  0  0  0  0  0
    2.0729   -2.2122   -2.0878 H   0  0  0  0  0  0  0  0  0  0  0  0
    4.2498   -2.9338   -2.9383 H   0  0  0  0  0  0  0  0  0  0  0  0
    6.6616   -2.2989   -3.1483 H   0  0  0  0  0  0  0  0  0  0  0  0
    7.5020   -1.4786   -1.7859 H   0  0  0  0  0  0  0  0  0  0  0  0
    6.9373   -3.1827   -1.5865 H   0  0  0  0  0  0  0  0  0  0  0  0
    4.0368    0.2408    0.8253 H   0  0  0  0  0  0  0  0  0  0  0  0
    9.8380    0.4807   -0.5120 H   0  0  0  0  0  0  0  0  0  0  0  0
   11.9427    1.3623    0.4564 H   0  0  0  0  0  0  0  0  0  0  0  0
   11.9381    2.0029    2.8855 H   0  0  0  0  0  0  0  0  0  0  0  0
    7.9197    0.8920    3.2026 H   0  0  0  0  0  0  0  0  0  0  0  0
   -0.4945    0.2038    1.6386 H   0  0  0  0  0  0  0  0  0  0  0  0
   -7.6039    2.0737   -0.9387 H   0  0  0  0  0  0  0  0  0  0  0  0
   -6.5582    2.7161    0.3548 H   0  0  0  0  0  0  0  0  0  0  0  0
   -8.7837    1.5498    0.9176 H   0  0  0  0  0  0  0  0  0  0  0  0
   -7.3729    1.1986    1.9629 H   0  0  0  0  0  0  0  0  0  0  0  0
  1  2  1  0
  2  3  1  0
  3  4  1  0
  4  5  1  0
  5  6  1  0
  6  7  1  0
  7  8  2  0
  8  9  1  0
  9 10  2  0
 10 11  1  0
 11 12  1  0
 12 13  2  0
 12 14  1  0
 14 15  2  0
 15 16  1  0
 16 17  2  0
 17 18  1  0
 17 19  1  0
 19 20  2  0
 19 21  1  0
 21 22  3  0
 22 23  1  0
 23 24  2  0
 24 25  1  0
 25 26  2  0
 26 27  1  0
 27 28  2  0
 10 29  1  0
 29 30  2  0
 30 31  1  0
 31 32  1  0
 31 33  1  0
 31 34  1  0
  5 35  1  0
 35 36  1  0
 36  2  1  0
 30  7  1  0
 20 14  1  0
 28 23  1  0
  1 37  1  0
  1 38  1  0
  1 39  1  0
  3 40  1  0
  3 41  1  0
  4 42  1  0
  4 43  1  0
  6 44  1  0
  6 45  1  0
  8 46  1  0
  9 47  1  0
 11 48  1  0
 15 49  1  0
 16 50  1  0
 18 51  1  0
 18 52  1  0
 18 53  1  0
 20 54  1  0
 24 55  1  0
 25 56  1  0
 26 57  1  0
 28 58  1  0
 29 59  1  0
 35 60  1  0
 35 61  1  0
 36 62  1  0
 36 63  1  0
M  END
$$$$
[H]c1nc2c([H])c(OC([H])([H])C([H])([H])C([H])([H])N3C([H])([H])C([H])([H])OC([H])([H])C3([H])[H])c(OC([H])([H])[H])c([H])c2c(Oc2c([H])c([H])c(N([H])C(=O)C3(C(=O)N([H])c4c([H])c([H])c(F)c([H])c4[H])C([H])([H])C3([H])[H])c([H])c2F)c1[H]
     RDKit          3D

 80 85  0  0  0  0  0  0  0  0999 V2000
   -3.8348   -0.7830   -2.5268 C   0  0  0  0  0  0  0  0  0  0  0  0
   -4.4085   -0.0831   -1.4692 O   0  0  0  0  0  0  0  0  0  0  0  0
   -3.7050    0.3915   -0.3940 C   0  0  0  0  0  0  0  0  0  0  0  0
   -2.3426    0.2299   -0.2625 C   0  0  0  0  0  0  0  0  0  0  0  0
   -1.6750    0.7344    0.8625 C   0  0  0  0  0  0  0  0  0  0  0  0
   -0.2898    0.5501    0.9662 C   0  0  0  0  0  0  0  0  0  0  0  0
    0.3435   -0.1256   -0.0602 O   0  0  0  0  0  0  0  0  0  0  0  0
    1.7161   -0.3803   -0.1332 C   0  0  0  0  0  0  0  0  0  0  0  0
    2.1597   -1.6934   -0.1033 C   0  0  0  0  0  0  0  0  0  0  0  0
    3.5189   -2.0068   -0.1774 C   0  0  0  0  0  0  0  0  0  0  0  0
    4.4887   -1.0391   -0.2815 C   0  0  0  0  0  0  0  0  0  0  0  0
    5.8792   -1.3421   -0.3734 N   0  0  0  0  0  0  0  0  0  0  0  0
    6.4824   -2.5462    0.0493 C   0  0  0  0  0  0  0  0  0  0  0  0
    5.8571   -3.4761    0.5938 O   0  0  0  0  0  0  0  0  0  0  0  0
    7.9663   -2.7108   -0.2057 C   0  0  0  0  0  0  0  0  0  0  0  0
    8.3768   -4.0792   -0.7264 C   0  0  0  0  0  0  0  0  0  0  0  0
    8.5635   -3.7277    0.7383 C   0  0  0  0  0  0  0  0  0  0  0  0
    8.7412   -1.5075   -0.5379 C   0  0  0  0  0  0  0  0  0  0  0  0
    9.2658   -1.4618   -1.7261 O   0  0  0  0  0  0  0  0  0  0  0  0
    8.9847   -0.4096    0.2987 N   0  0  0  0  0  0  0  0  0  0  0  0
    9.7265    0.7540   -0.0941 C   0  0  0  0  0  0  0  0  0  0  0  0
   10.8357    1.1147    0.5958 C   0  0  0  0  0  0  0  0  0  0  0  0
   11.5248    2.2599    0.2548 C   0  0  0  0  0  0  0  0  0  0  0  0
   11.0639    3.0368   -0.8057 C   0  0  0  0  0  0  0  0  0  0  0  0
   11.7002    4.1760   -1.1980 F   0  0  0  0  0  0  0  0  0  0  0  0
    9.9259    2.6771   -1.5228 C   0  0  0  0  0  0  0  0  0  0  0  0
    9.2822    1.5333   -1.1426 C   0  0  0  0  0  0  0  0  0  0  0  0
    4.0405    0.2679   -0.3104 C   0  0  0  0  0  0  0  0  0  0  0  0
    2.6818    0.5942   -0.2385 C   0  0  0  0  0  0  0  0  0  0  0  0
    2.2895    1.9005   -0.2942 F   0  0  0  0  0  0  0  0  0  0  0  0
    0.3644    1.0374    2.0620 C   0  0  0  0  0  0  0  0  0  0  0  0
   -0.3737    1.7049    3.0395 C   0  0  0  0  0  0  0  0  0  0  0  0
   -1.7048    1.8658    2.9116 N   0  0  0  0  0  0  0  0  0  0  0  0
   -2.3620    1.3966    1.8519 C   0  0  0  0  0  0  0  0  0  0  0  0
   -3.7219    1.5655    1.7321 C   0  0  0  0  0  0  0  0  0  0  0  0
   -4.3695    1.0741    0.6362 C   0  0  0  0  0  0  0  0  0  0  0  0
   -5.7174    1.2662    0.5493 O   0  0  0  0  0  0  0  0  0  0  0  0
   -6.4811    1.9426    1.5276 C   0  0  0  0  0  0  0  0  0  0  0  0
   -7.9347    2.0328    1.1448 C   0  0  0  0  0  0  0  0  0  0  0  0
   -8.4979    0.6486    1.0445 C   0  0  0  0  0  0  0  0  0  0  0  0
   -9.9036    0.6228    0.6831 N   0  0  0  0  0  0  0  0  0  0  0  0
  -10.3079   -0.7910    0.8619 C   0  0  0  0  0  0  0  0  0  0  0  0
  -11.6524   -1.0829    0.2872 C   0  0  0  0  0  0  0  0  0  0  0  0
  -11.9057   -0.4129   -0.9237 O   0  0  0  0  0  0  0  0  0  0  0  0
  -10.6875   -0.1604   -1.5210 C   0  0  0  0  0  0  0  0  0  0  0  0
   -9.9805    0.9527   -0.7449 C   0  0  0  0  0  0  0  0  0  0  0  0
   -3.5752   -1.8606   -2.2552 H   0  0  0  0  0  0  0  0  0  0  0  0
   -4.5499   -0.8738   -3.3932 H   0  0  0  0  0  0  0  0  0  0  0  0
   -2.9103   -0.3554   -2.9443 H   0  0  0  0  0  0  0  0  0  0  0  0
   -1.7881   -0.2915   -1.0522 H   0  0  0  0  0  0  0  0  0  0  0  0
    1.4435   -2.4997   -0.0192 H   0  0  0  0  0  0  0  0  0  0  0  0
    3.8115   -3.0467   -0.1742 H   0  0  0  0  0  0  0  0  0  0  0  0
    6.5102   -0.6145   -0.7952 H   0  0  0  0  0  0  0  0  0  0  0  0
    9.3550   -4.1910   -1.2604 H   0  0  0  0  0  0  0  0  0  0  0  0
    7.5489   -4.7822   -0.9962 H   0  0  0  0  0  0  0  0  0  0  0  0
    7.9285   -4.2048    1.5021 H   0  0  0  0  0  0  0  0  0  0  0  0
    9.5761   -3.4402    1.0968 H   0  0  0  0  0  0  0  0  0  0  0  0
    8.6269   -0.4382    1.3024 H   0  0  0  0  0  0  0  0  0  0  0  0
   11.2158    0.5228    1.4404 H   0  0  0  0  0  0  0  0  0  0  0  0
   12.4267    2.5904    0.7817 H   0  0  0  0  0  0  0  0  0  0  0  0
    9.5578    3.2991   -2.3588 H   0  0  0  0  0  0  0  0  0  0  0  0
    8.3940    1.2002   -1.6567 H   0  0  0  0  0  0  0  0  0  0  0  0
    4.7885    1.0431   -0.3850 H   0  0  0  0  0  0  0  0  0  0  0  0
    1.4077    0.9219    2.2023 H   0  0  0  0  0  0  0  0  0  0  0  0
    0.1267    2.1033    3.9130 H   0  0  0  0  0  0  0  0  0  0  0  0
   -4.2450    2.0957    2.5441 H   0  0  0  0  0  0  0  0  0  0  0  0
   -6.0816    2.9259    1.7614 H   0  0  0  0  0  0  0  0  0  0  0  0
   -6.4223    1.2583    2.4406 H   0  0  0  0  0  0  0  0  0  0  0  0
   -8.0945    2.6326    0.2433 H   0  0  0  0  0  0  0  0  0  0  0  0
   -8.4948    2.5991    1.9539 H   0  0  0  0  0  0  0  0  0  0  0  0
   -7.8870    0.1130    0.2654 H   0  0  0  0  0  0  0  0  0  0  0  0
   -8.3089    0.1370    2.0005 H   0  0  0  0  0  0  0  0  0  0  0  0
   -9.4878   -1.3997    0.4459 H   0  0  0  0  0  0  0  0  0  0  0  0
  -10.2930   -0.9120    1.9864 H   0  0  0  0  0  0  0  0  0  0  0  0
  -11.6772   -2.1790    0.0299 H   0  0  0  0  0  0  0  0  0  0  0  0
  -12.4398   -0.9525    1.0381 H   0  0  0  0  0  0  0  0  0  0  0  0
  -10.0219   -1.0279   -1.4792 H   0  0  0  0  0  0  0  0  0  0  0  0
  -10.8743    0.1453   -2.5500 H   0  0  0  0  0  0  0  0  0  0  0  0
  -10.5228    1.8993   -0.8854 H   0  0  0  0  0  0  0  0  0  0  0  0
   -8.9666    1.0724   -1.1712 H   0  0  0  0  0  0  0  0  0  0  0  0
  1  2  1  0
  2  3  1  0
  3  4  2  0
  4  5  1  0
  5  6  2  0
  6  7  1  0
  7  8  1  0
  8  9  2  0
  9 10  1  0
 10 11  2  0
 11 12  1  0
 12 13  1  0
 13 14  2  0
 13 15  1  0
 15 16  1  0
 16 17  1  0
 15 18  1  0
 18 19  2  0
 18 20  1  0
 20 21  1  0
 21 22  2  0
 22 23  1  0
 23 24  2  0
 24 25  1  0
 24 26  1  0
 26 27  2  0
 11 28  1  0
 28 29  2  0
 29 30  1  0
  6 31  1  0
 31 32  2  0
 32 33  1  0
 33 34  2  0
 34 35  1  0
 35 36  2  0
 36 37  1  0
 37 38  1  0
 38 39  1  0
 39 40  1  0
 40 41  1  0
 41 42  1  0
 42 43  1  0
 43 44  1  0
 44 45  1  0
 45 46  1  0
 36  3  1  0
 46 41  1  0
 34  5  1  0
 29  8  1  0
 17 15  1  0
 27 21  1  0
  1 47  1  0
  1 48  1  0
  1 49  1  0
  4 50  1  0
  9 51  1  0
 10 52  1  0
 12 53  1  0
 16 54  1  0
 16 55  1  0
 17 56  1  0
 17 57  1  0
 20 58  1  0
 22 59  1  0
 23 60  1  0
 26 61  1  0
 27 62  1  0
 28 63  1  0
 31 64  1  0
 32 65  1  0
 35 66  1  0
 38 67  1  0
 38 68  1  0
 39 69  1  0
 39 70  1  0
 40 71  1  0
 40 72  1  0
 42 73  1  0
 42 74  1  0
 43 75  1  0
 43 76  1  0
 45 77  1  0
 45 78  1  0
 46 79  1  0
 46 80  1  0
M  END
$$$$
[H]c1nc2c([H])c([H])c([H])c([H])n2c1C(=O)N([H])c1c([H])c(N([H])C(=O)c2c([H])c([H])c(C([H])([H])N3C([H])([H])C([H])([H])N(C([H])([H])[H])C([H])([H])C3([H])[H])c(C(F)(F)F)c2[H])c([H])c([H])c1C([H])([H])[H]
     RDKit          3D

 69 73  0  0  0  0  0  0  0  0999 V2000
    9.2006   -1.9543   -0.5875 C   0  0  0  0  0  0  0  0  0  0  0  0
    8.0158   -1.1863   -0.7540 N   0  0  0  0  0  0  0  0  0  0  0  0
    7.7395   -0.7236   -2.0714 C   0  0  0  0  0  0  0  0  0  0  0  0
    6.5166   -1.2473   -2.7038 C   0  0  0  0  0  0  0  0  0  0  0  0
    5.3621   -1.1552   -1.7871 N   0  0  0  0  0  0  0  0  0  0  0  0
    5.2334    0.1929   -1.3308 C   0  0  0  0  0  0  0  0  0  0  0  0
    4.0104    0.5161   -0.5900 C   0  0  0  0  0  0  0  0  0  0  0  0
    2.9804   -0.3874   -0.4274 C   0  0  0  0  0  0  0  0  0  0  0  0
    1.7874   -0.0795    0.2392 C   0  0  0  0  0  0  0  0  0  0  0  0
    1.6105    1.1733    0.7634 C   0  0  0  0  0  0  0  0  0  0  0  0
    2.6199    2.0725    0.6079 C   0  0  0  0  0  0  0  0  0  0  0  0
    3.8206    1.7797   -0.0565 C   0  0  0  0  0  0  0  0  0  0  0  0
    4.8604    2.8008   -0.1724 C   0  0  0  0  0  0  0  0  0  0  0  0
    6.0548    2.5047    0.4386 F   0  0  0  0  0  0  0  0  0  0  0  0
    5.0499    3.2263   -1.4820 F   0  0  0  0  0  0  0  0  0  0  0  0
    4.4097    3.9543    0.4921 F   0  0  0  0  0  0  0  0  0  0  0  0
    0.3819    1.5665    1.4683 C   0  0  0  0  0  0  0  0  0  0  0  0
    0.4800    2.5562    2.2173 O   0  0  0  0  0  0  0  0  0  0  0  0
   -0.8278    0.8799    1.3152 N   0  0  0  0  0  0  0  0  0  0  0  0
   -2.0396    1.1963    1.9673 C   0  0  0  0  0  0  0  0  0  0  0  0
   -2.1674    1.8989    3.1259 C   0  0  0  0  0  0  0  0  0  0  0  0
   -3.4095    2.1714    3.6516 C   0  0  0  0  0  0  0  0  0  0  0  0
   -4.5561    1.7435    3.0251 C   0  0  0  0  0  0  0  0  0  0  0  0
   -5.8906    2.0373    3.5924 C   0  0  0  0  0  0  0  0  0  0  0  0
   -4.4721    1.0211    1.8379 C   0  0  0  0  0  0  0  0  0  0  0  0
   -5.6614    0.6137    1.2365 N   0  0  0  0  0  0  0  0  0  0  0  0
   -5.8771   -0.1050    0.0521 C   0  0  0  0  0  0  0  0  0  0  0  0
   -4.9330   -0.4950   -0.6557 O   0  0  0  0  0  0  0  0  0  0  0  0
   -7.2479   -0.4270   -0.4020 C   0  0  0  0  0  0  0  0  0  0  0  0
   -8.3909   -0.0743    0.2844 C   0  0  0  0  0  0  0  0  0  0  0  0
   -9.4366   -0.5205   -0.4167 N   0  0  0  0  0  0  0  0  0  0  0  0
   -8.9875   -1.1392   -1.5160 C   0  0  0  0  0  0  0  0  0  0  0  0
   -9.6643   -1.7682   -2.5585 C   0  0  0  0  0  0  0  0  0  0  0  0
   -8.9585   -2.3378   -3.5910 C   0  0  0  0  0  0  0  0  0  0  0  0
   -7.5809   -2.2571   -3.5434 C   0  0  0  0  0  0  0  0  0  0  0  0
   -6.9299   -1.6302   -2.5028 C   0  0  0  0  0  0  0  0  0  0  0  0
   -7.6275   -1.0770   -1.4993 N   0  0  0  0  0  0  0  0  0  0  0  0
   -3.2164    0.7623    1.3333 C   0  0  0  0  0  0  0  0  0  0  0  0
    5.7347   -2.1102   -0.7391 C   0  0  0  0  0  0  0  0  0  0  0  0
    6.8854   -1.5593    0.0174 C   0  0  0  0  0  0  0  0  0  0  0  0
   10.0206   -1.4285   -1.1234 H   0  0  0  0  0  0  0  0  0  0  0  0
    9.0691   -2.9481   -1.0517 H   0  0  0  0  0  0  0  0  0  0  0  0
    9.5188   -2.0052    0.4733 H   0  0  0  0  0  0  0  0  0  0  0  0
    7.7641    0.3825   -2.1336 H   0  0  0  0  0  0  0  0  0  0  0  0
    8.6117   -1.0522   -2.7133 H   0  0  0  0  0  0  0  0  0  0  0  0
    6.3260   -0.7506   -3.6584 H   0  0  0  0  0  0  0  0  0  0  0  0
    6.6574   -2.3567   -2.8628 H   0  0  0  0  0  0  0  0  0  0  0  0
    5.1756    0.8049   -2.2950 H   0  0  0  0  0  0  0  0  0  0  0  0
    6.1696    0.5147   -0.8856 H   0  0  0  0  0  0  0  0  0  0  0  0
    3.0529   -1.3949   -0.8434 H   0  0  0  0  0  0  0  0  0  0  0  0
    1.0172   -0.8252    0.3373 H   0  0  0  0  0  0  0  0  0  0  0  0
    2.5017    3.0758    1.0168 H   0  0  0  0  0  0  0  0  0  0  0  0
   -0.7888    0.0480    0.6401 H   0  0  0  0  0  0  0  0  0  0  0  0
   -1.3030    2.2390    3.6518 H   0  0  0  0  0  0  0  0  0  0  0  0
   -3.5341    2.7357    4.5836 H   0  0  0  0  0  0  0  0  0  0  0  0
   -5.7626    2.6164    4.5254 H   0  0  0  0  0  0  0  0  0  0  0  0
   -6.5214    2.6552    2.9158 H   0  0  0  0  0  0  0  0  0  0  0  0
   -6.4194    1.0978    3.8693 H   0  0  0  0  0  0  0  0  0  0  0  0
   -6.5753    0.8820    1.7433 H   0  0  0  0  0  0  0  0  0  0  0  0
   -8.4809    0.4705    1.2311 H   0  0  0  0  0  0  0  0  0  0  0  0
  -10.7481   -1.7927   -2.5291 H   0  0  0  0  0  0  0  0  0  0  0  0
   -9.4633   -2.8240   -4.3979 H   0  0  0  0  0  0  0  0  0  0  0  0
   -6.9726   -2.6969   -4.3462 H   0  0  0  0  0  0  0  0  0  0  0  0
   -5.8520   -1.6072   -2.5357 H   0  0  0  0  0  0  0  0  0  0  0  0
   -3.0860    0.2121    0.4254 H   0  0  0  0  0  0  0  0  0  0  0  0
    6.0406   -3.0338   -1.3114 H   0  0  0  0  0  0  0  0  0  0  0  0
    4.9363   -2.3739   -0.0588 H   0  0  0  0  0  0  0  0  0  0  0  0
    7.2224   -2.3531    0.7451 H   0  0  0  0  0  0  0  0  0  0  0  0
    6.5442   -0.7251    0.6578 H   0  0  0  0  0  0  0  0  0  0  0  0
  1  2  1  0
  2  3  1  0
  3  4  1  0
  4  5  1  0
  5  6  1  0
  6  7  1  0
  7  8  2  0
  8  9  1  0
  9 10  2  0
 10 11  1  0
 11 12  2  0
 12 13  1  0
 13 14  1  0
 13 15  1  0
 13 16  1  0
 10 17  1  0
 17 18  2  0
 17 19  1  0
 19 20  1  0
 20 21  2  0
 21 22  1  0
 22 23  2  0
 23 24  1  0
 23 25  1  0
 25 26  1  0
 26 27  1  0
 27 28  2  0
 27 29  1  0
 29 30  2  0
 30 31  1  0
 31 32  2  0
 32 33  1  0
 33 34  2  0
 34 35  1  0
 35 36  2  0
 36 37  1  0
 25 38  2  0
  5 39  1  0
 39 40  1  0
 40  2  1  0
 12  7  1  0
 38 20  1  0
 37 29  1  0
 37 32  1  0
  1 41  1  0
  1 42  1  0
  1 43  1  0
  3 44  1  0
  3 45  1  0
  4 46  1  0
  4 47  1  0
  6 48  1  0
  6 49  1  0
  8 50  1  0
  9 51  1  0
 11 52  1  0
 19 53  1  0
 21 54  1  0
 22 55  1  0
 24 56  1  0
 24 57  1  0
 24 58  1  0
 26 59  1  0
 30 60  1  0
 33 61  1  0
 34 62  1  0
 35 63  1  0
 36 64  1  0
 38 65  1  0
 39 66  1  0
 39 67  1  0
 40 68  1  0
 40 69  1  0
M  END
$$$$
[H]c1nc([H])c(-c2nc(N([H])c3c([H])c(N([H])C(=O)c4c([H])c([H])c(C([H])([H])N5C([H])([H])C([H])([H])N(C([H])([H])[H])C([H])([H])C5([H])[H])c([H])c4[H])c([H])c([H])c3C([H])([H])[H])sc2[H])c([H])c1[H]
     RDKit          3D

 66 70  0  0  0  0  0  0  0  0999 V2000
   -7.2637    3.3483   -1.3093 C   0  0  0  0  0  0  0  0  0  0  0  0
   -7.9549    2.2569   -0.6896 N   0  0  0  0  0  0  0  0  0  0  0  0
   -8.3393    1.2751   -1.6536 C   0  0  0  0  0  0  0  0  0  0  0  0
   -7.6850   -0.0691   -1.4552 C   0  0  0  0  0  0  0  0  0  0  0  0
   -6.2503    0.0317   -1.2492 N   0  0  0  0  0  0  0  0  0  0  0  0
   -5.8453   -1.2300   -0.6593 C   0  0  0  0  0  0  0  0  0  0  0  0
   -4.3792   -1.3068   -0.4058 C   0  0  0  0  0  0  0  0  0  0  0  0
   -3.8694   -2.2515    0.4576 C   0  0  0  0  0  0  0  0  0  0  0  0
   -2.4911   -2.3411    0.7041 C   0  0  0  0  0  0  0  0  0  0  0  0
   -1.6050   -1.4923    0.0949 C   0  0  0  0  0  0  0  0  0  0  0  0
   -2.1253   -0.5421   -0.7748 C   0  0  0  0  0  0  0  0  0  0  0  0
   -3.4807   -0.4568   -1.0149 C   0  0  0  0  0  0  0  0  0  0  0  0
   -0.1476   -1.5634    0.3488 C   0  0  0  0  0  0  0  0  0  0  0  0
    0.5593   -1.0202   -0.5166 O   0  0  0  0  0  0  0  0  0  0  0  0
    0.3562   -2.2058    1.4954 N   0  0  0  0  0  0  0  0  0  0  0  0
    1.7088   -2.3478    1.8698 C   0  0  0  0  0  0  0  0  0  0  0  0
    1.9773   -3.3245    2.8371 C   0  0  0  0  0  0  0  0  0  0  0  0
    3.2749   -3.4863    3.2430 C   0  0  0  0  0  0  0  0  0  0  0  0
    4.3027   -2.7308    2.7368 C   0  0  0  0  0  0  0  0  0  0  0  0
    5.6570   -2.9765    3.2315 C   0  0  0  0  0  0  0  0  0  0  0  0
    4.0599   -1.7467    1.7680 C   0  0  0  0  0  0  0  0  0  0  0  0
    5.1538   -1.0420    1.3258 N   0  0  0  0  0  0  0  0  0  0  0  0
    5.1935    0.0030    0.3347 C   0  0  0  0  0  0  0  0  0  0  0  0
    6.2746    0.6637   -0.0629 N   0  0  0  0  0  0  0  0  0  0  0  0
    6.1855    1.5765   -0.9590 C   0  0  0  0  0  0  0  0  0  0  0  0
    4.9471    1.8461   -1.4893 C   0  0  0  0  0  0  0  0  0  0  0  0
    3.9887    0.7306   -0.6281 S   0  0  0  0  0  0  0  0  0  0  0  0
    7.3882    2.3361   -1.4246 C   0  0  0  0  0  0  0  0  0  0  0  0
    8.6357    2.0699   -0.8939 C   0  0  0  0  0  0  0  0  0  0  0  0
    9.7654    2.7481   -1.2975 C   0  0  0  0  0  0  0  0  0  0  0  0
    9.6265    3.7215   -2.2642 C   0  0  0  0  0  0  0  0  0  0  0  0
    8.4025    3.9581   -2.7613 N   0  0  0  0  0  0  0  0  0  0  0  0
    7.2890    3.2945   -2.3682 C   0  0  0  0  0  0  0  0  0  0  0  0
    2.7620   -1.5876    1.3651 C   0  0  0  0  0  0  0  0  0  0  0  0
   -5.9353    1.0526   -0.2606 C   0  0  0  0  0  0  0  0  0  0  0  0
   -7.1883    1.6298    0.3656 C   0  0  0  0  0  0  0  0  0  0  0  0
   -6.8123    4.0326   -0.5498 H   0  0  0  0  0  0  0  0  0  0  0  0
   -6.5171    3.0314   -2.0557 H   0  0  0  0  0  0  0  0  0  0  0  0
   -8.0228    3.9657   -1.8403 H   0  0  0  0  0  0  0  0  0  0  0  0
   -8.2007    1.6719   -2.6700 H   0  0  0  0  0  0  0  0  0  0  0  0
   -9.4430    1.1093   -1.5375 H   0  0  0  0  0  0  0  0  0  0  0  0
   -7.8245   -0.6452   -2.3931 H   0  0  0  0  0  0  0  0  0  0  0  0
   -8.1620   -0.6547   -0.6453 H   0  0  0  0  0  0  0  0  0  0  0  0
   -6.0966   -2.0842   -1.3502 H   0  0  0  0  0  0  0  0  0  0  0  0
   -6.4358   -1.4323    0.2625 H   0  0  0  0  0  0  0  0  0  0  0  0
   -4.5489   -2.9351    0.9526 H   0  0  0  0  0  0  0  0  0  0  0  0
   -2.1191   -3.0999    1.3859 H   0  0  0  0  0  0  0  0  0  0  0  0
   -1.4017    0.1250   -1.2504 H   0  0  0  0  0  0  0  0  0  0  0  0
   -3.8357    0.2989   -1.7033 H   0  0  0  0  0  0  0  0  0  0  0  0
   -0.3716   -2.6248    2.1665 H   0  0  0  0  0  0  0  0  0  0  0  0
    1.1769   -3.9417    3.2569 H   0  0  0  0  0  0  0  0  0  0  0  0
    3.4669   -4.2619    4.0071 H   0  0  0  0  0  0  0  0  0  0  0  0
    6.4056   -3.1315    2.4290 H   0  0  0  0  0  0  0  0  0  0  0  0
    5.6651   -3.9105    3.8246 H   0  0  0  0  0  0  0  0  0  0  0  0
    5.9205   -2.1570    3.9287 H   0  0  0  0  0  0  0  0  0  0  0  0
    6.1112   -1.2459    1.7248 H   0  0  0  0  0  0  0  0  0  0  0  0
    4.6623    2.5782   -2.2549 H   0  0  0  0  0  0  0  0  0  0  0  0
    8.7257    1.2933   -0.1269 H   0  0  0  0  0  0  0  0  0  0  0  0
   10.7343    2.5355   -0.8797 H   0  0  0  0  0  0  0  0  0  0  0  0
   10.4966    4.2815   -2.6111 H   0  0  0  0  0  0  0  0  0  0  0  0
    6.3250    3.5355   -2.8123 H   0  0  0  0  0  0  0  0  0  0  0  0
    2.5084   -0.8454    0.6393 H   0  0  0  0  0  0  0  0  0  0  0  0
   -5.3153    0.6756    0.5681 H   0  0  0  0  0  0  0  0  0  0  0  0
   -5.3978    1.8700   -0.7815 H   0  0  0  0  0  0  0  0  0  0  0  0
   -6.8705    2.3497    1.1284 H   0  0  0  0  0  0  0  0  0  0  0  0
   -7.7715    0.7949    0.7654 H   0  0  0  0  0  0  0  0  0  0  0  0
  1  2  1  0
  2  3  1  0
  3  4  1  0
  4  5  1  0
  5  6  1  0
  6  7  1  0
  7  8  2  0
  8  9  1  0
  9 10  2  0
 10 11  1  0
 11 12  2  0
 10 13  1  0
 13 14  2  0
 13 15  1  0
 15 16  1  0
 16 17  2  0
 17 18  1  0
 18 19  2  0
 19 20  1  0
 19 21  1  0
 21 22  1  0
 22 23  1  0
 23 24  2  0
 24 25  1  0
 25 26  2  0
 26 27  1  0
 25 28  1  0
 28 29  2  0
 29 30  1  0
 30 31  2  0
 31 32  1  0
 32 33  2  0
 21 34  2  0
  5 35  1  0
 35 36  1  0
 36  2  1  0
 12  7  1  0
 34 16  1  0
 27 23  1  0
 33 28  1  0
  1 37  1  0
  1 38  1  0
  1 39  1  0
  3 40  1  0
  3 41  1  0
  4 42  1  0
  4 43  1  0
  6 44  1  0
  6 45  1  0
  8 46  1  0
  9 47  1  0
 11 48  1  0
 12 49  1  0
 15 50  1  0
 17 51  1  0
 18 52  1  0
 20 53  1  0
 20 54  1  0
 20 55  1  0
 22 56  1  0
 26 57  1  0
 29 58  1  0
 30 59  1  0
 31 60  1  0
 33 61  1  0
 34 62  1  0
 35 63  1  0
 35 64  1  0
 36 65  1  0
 36 66  1  0
M  END
$$$$
[H]c1nc2c([H])c([H])c([H])c([H])n2c1C(=O)N([H])c1c([H])c(-c2noc(C3([H])C([H])([H])C(F)(F)C3([H])[H])n2)c([H])c([H])c1C([H])([H])[H]
     RDKit          3D

 47 51  0  0  0  0  0  0  0  0999 V2000
   -2.2864   -2.8111    2.0773 C   0  0  0  0  0  0  0  0  0  0  0  0
   -0.8897   -2.5002    1.6229 C   0  0  0  0  0  0  0  0  0  0  0  0
    0.1340   -3.3878    1.8314 C   0  0  0  0  0  0  0  0  0  0  0  0
    1.4237   -3.1230    1.4222 C   0  0  0  0  0  0  0  0  0  0  0  0
    1.7481   -1.9524    0.7827 C   0  0  0  0  0  0  0  0  0  0  0  0
    0.6997   -1.0464    0.5706 C   0  0  0  0  0  0  0  0  0  0  0  0
   -0.5974   -1.2912    0.9718 C   0  0  0  0  0  0  0  0  0  0  0  0
   -1.6643   -0.3970    0.7695 N   0  0  0  0  0  0  0  0  0  0  0  0
   -1.7037    0.8560    0.1613 C   0  0  0  0  0  0  0  0  0  0  0  0
   -0.6023    1.3396   -0.2973 O   0  0  0  0  0  0  0  0  0  0  0  0
   -2.8896    1.6802    0.0013 C   0  0  0  0  0  0  0  0  0  0  0  0
   -2.8241    3.0829   -0.0522 C   0  0  0  0  0  0  0  0  0  0  0  0
   -4.0556    3.5476   -0.2369 N   0  0  0  0  0  0  0  0  0  0  0  0
   -4.9118    2.5015   -0.3060 C   0  0  0  0  0  0  0  0  0  0  0  0
   -6.2783    2.4648   -0.5018 C   0  0  0  0  0  0  0  0  0  0  0  0
   -6.9556    1.2780   -0.5590 C   0  0  0  0  0  0  0  0  0  0  0  0
   -6.2155    0.1370   -0.4141 C   0  0  0  0  0  0  0  0  0  0  0  0
   -4.8349    0.1962   -0.2165 C   0  0  0  0  0  0  0  0  0  0  0  0
   -4.1672    1.3634   -0.1575 N   0  0  0  0  0  0  0  0  0  0  0  0
    3.0955   -1.6345    0.3351 C   0  0  0  0  0  0  0  0  0  0  0  0
    4.1931   -2.3975    0.4671 N   0  0  0  0  0  0  0  0  0  0  0  0
    5.2038   -1.7630   -0.0612 O   0  0  0  0  0  0  0  0  0  0  0  0
    4.8283   -0.6027   -0.5433 C   0  0  0  0  0  0  0  0  0  0  0  0
    3.5150   -0.5245   -0.2956 N   0  0  0  0  0  0  0  0  0  0  0  0
    5.7024    0.3734   -1.2078 C   0  0  0  0  0  0  0  0  0  0  0  0
    5.4786    1.8253   -0.7696 C   0  0  0  0  0  0  0  0  0  0  0  0
    5.6845    2.2051   -2.2366 C   0  0  0  0  0  0  0  0  0  0  0  0
    7.0234    2.2822   -2.5025 F   0  0  0  0  0  0  0  0  0  0  0  0
    4.8967    3.2176   -2.6889 F   0  0  0  0  0  0  0  0  0  0  0  0
    5.1836    0.7954   -2.5766 C   0  0  0  0  0  0  0  0  0  0  0  0
   -2.6806   -2.0293    2.7567 H   0  0  0  0  0  0  0  0  0  0  0  0
   -2.9828   -2.9175    1.2218 H   0  0  0  0  0  0  0  0  0  0  0  0
   -2.3124   -3.7667    2.6370 H   0  0  0  0  0  0  0  0  0  0  0  0
   -0.1131   -4.3270    2.3416 H   0  0  0  0  0  0  0  0  0  0  0  0
    2.2282   -3.8355    1.5933 H   0  0  0  0  0  0  0  0  0  0  0  0
    0.9849   -0.1295    0.0630 H   0  0  0  0  0  0  0  0  0  0  0  0
   -2.5981   -0.7243    1.1928 H   0  0  0  0  0  0  0  0  0  0  0  0
   -1.9354    3.6842    0.0395 H   0  0  0  0  0  0  0  0  0  0  0  0
   -6.8443    3.3997   -0.6154 H   0  0  0  0  0  0  0  0  0  0  0  0
   -8.0172    1.1988   -0.7089 H   0  0  0  0  0  0  0  0  0  0  0  0
   -6.6462   -0.8561   -0.4434 H   0  0  0  0  0  0  0  0  0  0  0  0
   -4.2687   -0.7234   -0.1335 H   0  0  0  0  0  0  0  0  0  0  0  0
    6.7469    0.0793   -1.2918 H   0  0  0  0  0  0  0  0  0  0  0  0
    4.4156    1.9397   -0.4666 H   0  0  0  0  0  0  0  0  0  0  0  0
    6.2322    2.2091   -0.0829 H   0  0  0  0  0  0  0  0  0  0  0  0
    5.7643    0.3720   -3.4179 H   0  0  0  0  0  0  0  0  0  0  0  0
    4.0929    0.7117   -2.6618 H   0  0  0  0  0  0  0  0  0  0  0  0
  1  2  1  0
  2  3  2  0
  3  4  1  0
  4  5  2  0
  5  6  1  0
  6  7  2  0
  7  8  1  0
  8  9  1  0
  9 10  2  0
  9 11  1  0
 11 12  2  0
 12 13  1  0
 13 14  2  0
 14 15  1  0
 15 16  2  0
 16 17  1  0
 17 18  2  0
 18 19  1  0
  5 20  1  0
 20 21  2  0
 21 22  1  0
 22 23  1  0
 23 24  2  0
 23 25  1  0
 25 26  1  0
 26 27  1  0
 27 28  1  0
 27 29  1  0
 27 30  1  0
  7  2  1  0
 19 11  1  0
 24 20  1  0
 30 25  1  0
 19 14  1  0
  1 31  1  0
  1 32  1  0
  1 33  1  0
  3 34  1  0
  4 35  1  0
  6 36  1  0
  8 37  1  0
 12 38  1  0
 15 39  1  0
 16 40  1  0
 17 41  1  0
 18 42  1  0
 25 43  1  0
 26 44  1  0
 26 45  1  0
 30 46  1  0
 30 47  1  0
M  END
$$$$
[H]c1nc2c([H])c(OC([H])([H])[H])c(OC([H])([H])[H])c([H])c2c(Oc2c([H])c([H])c(N([H])C(=O)N([H])c3c([H])c(C([H])([H])[H])c([H])c([H])c3F)c(F)c2[H])c1[H]
     RDKit          3D

 55 58  0  0  0  0  0  0  0  0999 V2000
   -9.6174    0.4187   -0.6297 C   0  0  0  0  0  0  0  0  0  0  0  0
   -8.5120    0.9847    0.0200 O   0  0  0  0  0  0  0  0  0  0  0  0
   -7.2054    0.8144   -0.3467 C   0  0  0  0  0  0  0  0  0  0  0  0
   -6.8094    0.0569   -1.4462 C   0  0  0  0  0  0  0  0  0  0  0  0
   -5.4666   -0.0431   -1.7152 C   0  0  0  0  0  0  0  0  0  0  0  0
   -5.0428   -0.7861   -2.7813 N   0  0  0  0  0  0  0  0  0  0  0  0
   -3.7356   -0.9168   -3.0744 C   0  0  0  0  0  0  0  0  0  0  0  0
   -2.7220   -0.3301   -2.3446 C   0  0  0  0  0  0  0  0  0  0  0  0
   -3.1252    0.4224   -1.2662 C   0  0  0  0  0  0  0  0  0  0  0  0
   -2.2004    1.0348   -0.4620 O   0  0  0  0  0  0  0  0  0  0  0  0
   -0.8574    0.9465   -0.5151 C   0  0  0  0  0  0  0  0  0  0  0  0
   -0.0503    2.0136   -0.7253 C   0  0  0  0  0  0  0  0  0  0  0  0
    1.3400    1.8902   -0.7603 C   0  0  0  0  0  0  0  0  0  0  0  0
    1.9468    0.6463   -0.5757 C   0  0  0  0  0  0  0  0  0  0  0  0
    3.3092    0.4309   -0.3944 N   0  0  0  0  0  0  0  0  0  0  0  0
    4.5825    0.2298   -0.2250 C   0  0  0  0  0  0  0  0  0  0  0  0
    5.5727    0.8556   -0.7505 O   0  0  0  0  0  0  0  0  0  0  0  0
    4.9570   -0.8374    0.6762 N   0  0  0  0  0  0  0  0  0  0  0  0
    6.1796   -1.3133    1.0205 C   0  0  0  0  0  0  0  0  0  0  0  0
    7.3378   -1.2102    0.2941 C   0  0  0  0  0  0  0  0  0  0  0  0
    8.4973   -1.8195    0.6673 C   0  0  0  0  0  0  0  0  0  0  0  0
    9.7074   -1.6658   -0.1805 C   0  0  0  0  0  0  0  0  0  0  0  0
    8.5870   -2.6043    1.8395 C   0  0  0  0  0  0  0  0  0  0  0  0
    7.4393   -2.7187    2.5820 C   0  0  0  0  0  0  0  0  0  0  0  0
    6.2675   -2.0939    2.1838 C   0  0  0  0  0  0  0  0  0  0  0  0
    5.1836   -2.2397    2.9431 F   0  0  0  0  0  0  0  0  0  0  0  0
    1.0873   -0.4498   -0.3660 C   0  0  0  0  0  0  0  0  0  0  0  0
    1.6283   -1.7060   -0.2208 F   0  0  0  0  0  0  0  0  0  0  0  0
   -0.2439   -0.3067   -0.3370 C   0  0  0  0  0  0  0  0  0  0  0  0
   -4.4662    0.5429   -0.9901 C   0  0  0  0  0  0  0  0  0  0  0  0
   -4.9138    1.2943    0.1043 C   0  0  0  0  0  0  0  0  0  0  0  0
   -6.2251    1.4403    0.4343 C   0  0  0  0  0  0  0  0  0  0  0  0
   -6.6288    2.2008    1.5350 O   0  0  0  0  0  0  0  0  0  0  0  0
   -5.6836    2.8414    2.3571 C   0  0  0  0  0  0  0  0  0  0  0  0
   -9.3756   -0.5378   -1.1198 H   0  0  0  0  0  0  0  0  0  0  0  0
  -10.3763    0.2122    0.1756 H   0  0  0  0  0  0  0  0  0  0  0  0
  -10.0151    1.1610   -1.3510 H   0  0  0  0  0  0  0  0  0  0  0  0
   -7.5601   -0.4136   -2.0285 H   0  0  0  0  0  0  0  0  0  0  0  0
   -3.4328   -1.5231   -3.9370 H   0  0  0  0  0  0  0  0  0  0  0  0
   -1.6755   -0.4596   -2.6208 H   0  0  0  0  0  0  0  0  0  0  0  0
   -0.4226    3.0305   -0.8761 H   0  0  0  0  0  0  0  0  0  0  0  0
    1.9589    2.7559   -0.9164 H   0  0  0  0  0  0  0  0  0  0  0  0
    3.5386    1.3388   -1.4211 H   0  0  0  0  0  0  0  0  0  0  0  0
    4.0988   -1.3075    1.1206 H   0  0  0  0  0  0  0  0  0  0  0  0
    7.3412   -0.6107   -0.6452 H   0  0  0  0  0  0  0  0  0  0  0  0
    9.6073   -0.8370   -0.8718 H   0  0  0  0  0  0  0  0  0  0  0  0
   10.5854   -1.4486    0.4850 H   0  0  0  0  0  0  0  0  0  0  0  0
    9.8668   -2.6347   -0.6805 H   0  0  0  0  0  0  0  0  0  0  0  0
    9.5163   -3.0610    2.0879 H   0  0  0  0  0  0  0  0  0  0  0  0
    7.4627   -3.3117    3.4872 H   0  0  0  0  0  0  0  0  0  0  0  0
   -0.8702   -1.1787   -0.1868 H   0  0  0  0  0  0  0  0  0  0  0  0
   -4.1460    1.7726    0.6894 H   0  0  0  0  0  0  0  0  0  0  0  0
   -4.7826    2.2169    2.5586 H   0  0  0  0  0  0  0  0  0  0  0  0
   -6.1195    3.0607    3.3701 H   0  0  0  0  0  0  0  0  0  0  0  0
   -5.3168    3.7522    1.8631 H   0  0  0  0  0  0  0  0  0  0  0  0
  1  2  1  0
  2  3  1  0
  3  4  2  0
  4  5  1  0
  5  6  2  0
  6  7  1  0
  7  8  2  0
  8  9  1  0
  9 10  1  0
 10 11  1  0
 11 12  2  0
 12 13  1  0
 13 14  2  0
 14 15  1  0
 15 16  1  0
 16 17  2  0
 16 18  1  0
 18 19  1  0
 19 20  2  0
 20 21  1  0
 21 22  1  0
 21 23  2  0
 23 24  1  0
 24 25  2  0
 25 26  1  0
 14 27  1  0
 27 28  1  0
 27 29  2  0
  9 30  2  0
 30 31  1  0
 31 32  2  0
 32 33  1  0
 33 34  1  0
 32  3  1  0
 30  5  1  0
 29 11  1  0
 25 19  1  0
  1 35  1  0
  1 36  1  0
  1 37  1  0
  4 38  1  0
  7 39  1  0
  8 40  1  0
 12 41  1  0
 13 42  1  0
 15 43  1  0
 18 44  1  0
 20 45  1  0
 22 46  1  0
 22 47  1  0
 22 48  1  0
 23 49  1  0
 24 50  1  0
 29 51  1  0
 31 52  1  0
 34 53  1  0
 34 54  1  0
 34 55  1  0
M  END
$$$$
[H]c1nc2c(c(C([H])([H])[H])nn2[H])c(-c2c([H])c([H])c(N([H])C(=O)N([H])c3c([H])c([H])c([H])c(C([H])([H])[H])c3[H])c([H])c2[H])c1[H]
     RDKit          3D

 46 49  0  0  0  0  0  0  0  0999 V2000
   -3.4711    1.7639   -1.5698 C   0  0  0  0  0  0  0  0  0  0  0  0
   -4.8149    1.1810   -1.4053 C   0  0  0  0  0  0  0  0  0  0  0  0
   -5.9236    1.5049   -2.1365 N   0  0  0  0  0  0  0  0  0  0  0  0
   -6.9525    0.8258   -1.7151 N   0  0  0  0  0  0  0  0  0  0  0  0
   -6.6063    0.0256   -0.7021 C   0  0  0  0  0  0  0  0  0  0  0  0
   -7.2494   -0.8405    0.0808 N   0  0  0  0  0  0  0  0  0  0  0  0
   -6.6376   -1.5144    1.0617 C   0  0  0  0  0  0  0  0  0  0  0  0
   -5.3070   -1.3570    1.3235 C   0  0  0  0  0  0  0  0  0  0  0  0
   -4.5891   -0.4514    0.5182 C   0  0  0  0  0  0  0  0  0  0  0  0
   -3.1591   -0.3210    0.7384 C   0  0  0  0  0  0  0  0  0  0  0  0
   -2.6342    0.2731    1.8626 C   0  0  0  0  0  0  0  0  0  0  0  0
   -1.2823    0.3157    2.0840 C   0  0  0  0  0  0  0  0  0  0  0  0
   -0.3796   -0.2562    1.1528 C   0  0  0  0  0  0  0  0  0  0  0  0
    0.9981   -0.2174    1.4319 N   0  0  0  0  0  0  0  0  0  0  0  0
    2.0370   -0.2487    0.4516 C   0  0  0  0  0  0  0  0  0  0  0  0
    1.7281   -0.3048   -0.7613 O   0  0  0  0  0  0  0  0  0  0  0  0
    3.3721   -0.2147    0.8966 N   0  0  0  0  0  0  0  0  0  0  0  0
    4.5072   -0.2428    0.1125 C   0  0  0  0  0  0  0  0  0  0  0  0
    4.5539   -0.5933   -1.1937 C   0  0  0  0  0  0  0  0  0  0  0  0
    5.7628   -0.5704   -1.9136 C   0  0  0  0  0  0  0  0  0  0  0  0
    6.9297   -0.1962   -1.3255 C   0  0  0  0  0  0  0  0  0  0  0  0
    6.9122    0.1670    0.0099 C   0  0  0  0  0  0  0  0  0  0  0  0
    8.1933    0.5758    0.6493 C   0  0  0  0  0  0  0  0  0  0  0  0
    5.7307    0.1406    0.6977 C   0  0  0  0  0  0  0  0  0  0  0  0
   -0.9099   -0.8453    0.0390 C   0  0  0  0  0  0  0  0  0  0  0  0
   -2.2814   -0.8644   -0.1433 C   0  0  0  0  0  0  0  0  0  0  0  0
   -5.2310    0.2420   -0.4915 C   0  0  0  0  0  0  0  0  0  0  0  0
   -2.9842    2.0853   -0.6291 H   0  0  0  0  0  0  0  0  0  0  0  0
   -2.8194    1.2477   -2.2895 H   0  0  0  0  0  0  0  0  0  0  0  0
   -3.6628    2.7702   -2.0900 H   0  0  0  0  0  0  0  0  0  0  0  0
   -7.9078    0.8929   -2.1070 H   0  0  0  0  0  0  0  0  0  0  0  0
   -7.2207   -2.2216    1.6829 H   0  0  0  0  0  0  0  0  0  0  0  0
   -4.7513   -1.8550    2.0830 H   0  0  0  0  0  0  0  0  0  0  0  0
   -3.3073    0.7227    2.5986 H   0  0  0  0  0  0  0  0  0  0  0  0
   -0.8593    0.7797    2.9635 H   0  0  0  0  0  0  0  0  0  0  0  0
    1.2520   -0.1624    2.4607 H   0  0  0  0  0  0  0  0  0  0  0  0
    3.4996   -0.1653    1.9572 H   0  0  0  0  0  0  0  0  0  0  0  0
    3.6640   -0.9205   -1.7433 H   0  0  0  0  0  0  0  0  0  0  0  0
    5.7337   -0.8640   -2.9645 H   0  0  0  0  0  0  0  0  0  0  0  0
    7.8690   -0.1775   -1.8817 H   0  0  0  0  0  0  0  0  0  0  0  0
    8.0099    1.6113    1.0530 H   0  0  0  0  0  0  0  0  0  0  0  0
    8.4059   -0.1486    1.4478 H   0  0  0  0  0  0  0  0  0  0  0  0
    8.9859    0.6762   -0.0954 H   0  0  0  0  0  0  0  0  0  0  0  0
    5.7380    0.4304    1.7475 H   0  0  0  0  0  0  0  0  0  0  0  0
   -0.2822   -1.3364   -0.7351 H   0  0  0  0  0  0  0  0  0  0  0  0
   -2.6589   -1.3420   -1.0422 H   0  0  0  0  0  0  0  0  0  0  0  0
  1  2  1  0
  2  3  2  0
  3  4  1  0
  4  5  1  0
  5  6  2  0
  6  7  1  0
  7  8  2  0
  8  9  1  0
  9 10  1  0
 10 11  2  0
 11 12  1  0
 12 13  2  0
 13 14  1  0
 14 15  1  0
 15 16  2  0
 15 17  1  0
 17 18  1  0
 18 19  2  0
 19 20  1  0
 20 21  2  0
 21 22  1  0
 22 23  1  0
 22 24  2  0
 13 25  1  0
 25 26  2  0
  9 27  2  0
 27  2  1  0
 27  5  1  0
 26 10  1  0
 24 18  1  0
  1 28  1  0
  1 29  1  0
  1 30  1  0
  4 31  1  0
  7 32  1  0
  8 33  1  0
 11 34  1  0
 12 35  1  0
 14 36  1  0
 17 37  1  0
 19 38  1  0
 20 39  1  0
 21 40  1  0
 23 41  1  0
 23 42  1  0
 23 43  1  0
 24 44  1  0
 25 45  1  0
 26 46  1  0
M  END
$$$$
[H]c1nc2c([H])c(OC([H])([H])[H])c(OC([H])([H])[H])c([H])c2c(Oc2c([H])c([H])c(N([H])C(=O)N([H])c3c([H])c(C([H])([H])[H])c([H])c([H])c3F)c([H])c2[H])c1[H]
     RDKit          3D

 55 58  0  0  0  0  0  0  0  0999 V2000
   -8.1351    1.2675    0.3159 C   0  0  0  0  0  0  0  0  0  0  0  0
   -6.9665    0.6219    0.7689 O   0  0  0  0  0  0  0  0  0  0  0  0
   -6.0316    0.2213   -0.1758 C   0  0  0  0  0  0  0  0  0  0  0  0
   -6.2027    0.4293   -1.5210 C   0  0  0  0  0  0  0  0  0  0  0  0
   -5.2466    0.0155   -2.4333 C   0  0  0  0  0  0  0  0  0  0  0  0
   -5.4529    0.2150   -3.7505 N   0  0  0  0  0  0  0  0  0  0  0  0
   -4.5271   -0.2099   -4.6210 C   0  0  0  0  0  0  0  0  0  0  0  0
   -3.3715   -0.8413   -4.2333 C   0  0  0  0  0  0  0  0  0  0  0  0
   -3.1465   -1.0521   -2.8735 C   0  0  0  0  0  0  0  0  0  0  0  0
   -1.9751   -1.6870   -2.5417 O   0  0  0  0  0  0  0  0  0  0  0  0
   -0.9891   -1.0082   -1.8493 C   0  0  0  0  0  0  0  0  0  0  0  0
    0.0809   -1.7091   -1.2893 C   0  0  0  0  0  0  0  0  0  0  0  0
    1.0862   -1.0751   -0.5956 C   0  0  0  0  0  0  0  0  0  0  0  0
    1.1161    0.2740   -0.4033 C   0  0  0  0  0  0  0  0  0  0  0  0
    2.1102    1.0072    0.2716 N   0  0  0  0  0  0  0  0  0  0  0  0
    3.4229    0.5354    0.5822 C   0  0  0  0  0  0  0  0  0  0  0  0
    3.7762   -0.6120    0.2464 O   0  0  0  0  0  0  0  0  0  0  0  0
    4.3249    1.3811    1.2766 N   0  0  0  0  0  0  0  0  0  0  0  0
    5.6421    1.0843    1.6609 C   0  0  0  0  0  0  0  0  0  0  0  0
    6.2914   -0.1059    1.4219 C   0  0  0  0  0  0  0  0  0  0  0  0
    7.6106   -0.3111    1.8444 C   0  0  0  0  0  0  0  0  0  0  0  0
    8.2753   -1.6034    1.5693 C   0  0  0  0  0  0  0  0  0  0  0  0
    8.2546    0.7051    2.5088 C   0  0  0  0  0  0  0  0  0  0  0  0
    7.5943    1.9122    2.7505 C   0  0  0  0  0  0  0  0  0  0  0  0
    6.3091    2.1249    2.3441 C   0  0  0  0  0  0  0  0  0  0  0  0
    5.6865    3.3124    2.5922 F   0  0  0  0  0  0  0  0  0  0  0  0
    0.0309    0.9761   -0.9720 C   0  0  0  0  0  0  0  0  0  0  0  0
   -0.9659    0.3538   -1.6587 C   0  0  0  0  0  0  0  0  0  0  0  0
   -4.1027   -0.6147   -1.9940 C   0  0  0  0  0  0  0  0  0  0  0  0
   -3.9320   -0.8251   -0.6377 C   0  0  0  0  0  0  0  0  0  0  0  0
   -4.8812   -0.4143    0.2698 C   0  0  0  0  0  0  0  0  0  0  0  0
   -4.6629   -0.6474    1.6165 O   0  0  0  0  0  0  0  0  0  0  0  0
   -3.4914   -1.2923    2.0435 C   0  0  0  0  0  0  0  0  0  0  0  0
   -8.7685    1.5452    1.1944 H   0  0  0  0  0  0  0  0  0  0  0  0
   -7.8186    2.1650   -0.2455 H   0  0  0  0  0  0  0  0  0  0  0  0
   -8.6491    0.5872   -0.3817 H   0  0  0  0  0  0  0  0  0  0  0  0
   -7.0990    0.9243   -1.8699 H   0  0  0  0  0  0  0  0  0  0  0  0
   -4.6676   -0.0630   -5.6930 H   0  0  0  0  0  0  0  0  0  0  0  0
   -2.6567   -1.1642   -4.9809 H   0  0  0  0  0  0  0  0  0  0  0  0
    0.0670   -2.7837   -1.4371 H   0  0  0  0  0  0  0  0  0  0  0  0
    1.8552   -1.7014   -0.1911 H   0  0  0  0  0  0  0  0  0  0  0  0
    1.8828    2.0006    0.5879 H   0  0  0  0  0  0  0  0  0  0  0  0
    3.9138    2.3415    1.5134 H   0  0  0  0  0  0  0  0  0  0  0  0
    5.8287   -0.9237    0.9086 H   0  0  0  0  0  0  0  0  0  0  0  0
    7.7495   -2.1856    0.8007 H   0  0  0  0  0  0  0  0  0  0  0  0
    8.3761   -2.2442    2.4684 H   0  0  0  0  0  0  0  0  0  0  0  0
    9.3308   -1.4492    1.2058 H   0  0  0  0  0  0  0  0  0  0  0  0
    9.2788    0.5615    2.8433 H   0  0  0  0  0  0  0  0  0  0  0  0
    8.1109    2.7205    3.2806 H   0  0  0  0  0  0  0  0  0  0  0  0
    0.0298    2.0455   -0.8342 H   0  0  0  0  0  0  0  0  0  0  0  0
   -1.7962    0.9252   -2.0953 H   0  0  0  0  0  0  0  0  0  0  0  0
   -3.0610   -1.3352   -0.2507 H   0  0  0  0  0  0  0  0  0  0  0  0
   -3.3737   -2.2926    1.5681 H   0  0  0  0  0  0  0  0  0  0  0  0
   -3.4368   -1.4407    3.1209 H   0  0  0  0  0  0  0  0  0  0  0  0
   -2.6274   -0.6611    1.6864 H   0  0  0  0  0  0  0  0  0  0  0  0
  1  2  1  0
  2  3  1  0
  3  4  2  0
  4  5  1  0
  5  6  2  0
  6  7  1  0
  7  8  2  0
  8  9  1  0
  9 10  1  0
 10 11  1  0
 11 12  2  0
 12 13  1  0
 13 14  2  0
 14 15  1  0
 15 16  1  0
 16 17  2  0
 16 18  1  0
 18 19  1  0
 19 20  2  0
 20 21  1  0
 21 22  1  0
 21 23  2  0
 23 24  1  0
 24 25  2  0
 25 26  1  0
 14 27  1  0
 27 28  2  0
  9 29  2  0
 29 30  1  0
 30 31  2  0
 31 32  1  0
 32 33  1  0
 31  3  1  0
 29  5  1  0
 28 11  1  0
 25 19  1  0
  1 34  1  0
  1 35  1  0
  1 36  1  0
  4 37  1  0
  7 38  1  0
  8 39  1  0
 12 40  1  0
 13 41  1  0
 15 42  1  0
 18 43  1  0
 20 44  1  0
 22 45  1  0
 22 46  1  0
 22 47  1  0
 23 48  1  0
 24 49  1  0
 27 50  1  0
 28 51  1  0
 30 52  1  0
 33 53  1  0
 33 54  1  0
 33 55  1  0
M  END
$$$$
[H]c1c([H])c([H])c(C(=C2C(=O)N([H])c3c([H])c([H])c(N([H])C4([H])C([H])([H])C([H])([H])N(C([H])([H])C([H])([H])[H])C([H])([H])C4([H])[H])c([H])c32)c2nc3c([H])c([H])c([H])c([H])c3n2[H])c([H])c1[H]
     RDKit          3D

 64 69  0  0  0  0  0  0  0  0999 V2000
    7.8891   -1.4619    1.7335 C   0  0  0  0  0  0  0  0  0  0  0  0
    7.5534   -0.8422    0.3867 C   0  0  0  0  0  0  0  0  0  0  0  0
    6.1336   -0.7921    0.2422 N   0  0  0  0  0  0  0  0  0  0  0  0
    5.7087   -0.2284   -0.9986 C   0  0  0  0  0  0  0  0  0  0  0  0
    4.2229    0.0571   -1.0364 C   0  0  0  0  0  0  0  0  0  0  0  0
    3.8389    1.0658   -0.0106 C   0  0  0  0  0  0  0  0  0  0  0  0
    4.7080    0.9711    1.2221 C   0  0  0  0  0  0  0  0  0  0  0  0
    5.4018   -0.3467    1.3804 C   0  0  0  0  0  0  0  0  0  0  0  0
    2.4372    0.9493    0.2991 N   0  0  0  0  0  0  0  0  0  0  0  0
    1.4073    1.2755   -0.6180 C   0  0  0  0  0  0  0  0  0  0  0  0
    1.6886    1.9895   -1.7431 C   0  0  0  0  0  0  0  0  0  0  0  0
    0.6932    2.2789   -2.6253 C   0  0  0  0  0  0  0  0  0  0  0  0
   -0.6078    1.8636   -2.4043 C   0  0  0  0  0  0  0  0  0  0  0  0
   -1.7915    2.0131   -3.1611 N   0  0  0  0  0  0  0  0  0  0  0  0
   -2.8795    1.3867   -2.5195 C   0  0  0  0  0  0  0  0  0  0  0  0
   -4.0445    1.3594   -2.9701 O   0  0  0  0  0  0  0  0  0  0  0  0
   -2.3600    0.7932   -1.2570 C   0  0  0  0  0  0  0  0  0  0  0  0
   -3.0379    0.1109   -0.3852 C   0  0  0  0  0  0  0  0  0  0  0  0
   -4.4731   -0.1719   -0.5615 C   0  0  0  0  0  0  0  0  0  0  0  0
   -5.4299    0.7430   -0.6982 N   0  0  0  0  0  0  0  0  0  0  0  0
   -6.6344    0.1738   -0.8246 C   0  0  0  0  0  0  0  0  0  0  0  0
   -7.9087    0.6464   -0.9880 C   0  0  0  0  0  0  0  0  0  0  0  0
   -8.9542   -0.2489   -1.0884 C   0  0  0  0  0  0  0  0  0  0  0  0
   -8.7294   -1.6071   -1.0263 C   0  0  0  0  0  0  0  0  0  0  0  0
   -7.4415   -2.0914   -0.8608 C   0  0  0  0  0  0  0  0  0  0  0  0
   -6.4029   -1.1945   -0.7614 C   0  0  0  0  0  0  0  0  0  0  0  0
   -5.0829   -1.3940   -0.6015 N   0  0  0  0  0  0  0  0  0  0  0  0
   -2.5583   -0.3257    0.8990 C   0  0  0  0  0  0  0  0  0  0  0  0
   -2.3306   -1.6322    1.1948 C   0  0  0  0  0  0  0  0  0  0  0  0
   -1.9801   -2.0231    2.4712 C   0  0  0  0  0  0  0  0  0  0  0  0
   -1.8512   -1.0979    3.4820 C   0  0  0  0  0  0  0  0  0  0  0  0
   -2.0774    0.2265    3.2007 C   0  0  0  0  0  0  0  0  0  0  0  0
   -2.4272    0.6155    1.9257 C   0  0  0  0  0  0  0  0  0  0  0  0
   -0.9061    1.1419   -1.2675 C   0  0  0  0  0  0  0  0  0  0  0  0
    0.0991    0.8435   -0.3720 C   0  0  0  0  0  0  0  0  0  0  0  0
    8.7566   -2.1615    1.6457 H   0  0  0  0  0  0  0  0  0  0  0  0
    8.1862   -0.6262    2.4168 H   0  0  0  0  0  0  0  0  0  0  0  0
    7.0484   -2.0524    2.1250 H   0  0  0  0  0  0  0  0  0  0  0  0
    8.0674    0.1275    0.2889 H   0  0  0  0  0  0  0  0  0  0  0  0
    7.9464   -1.5724   -0.3768 H   0  0  0  0  0  0  0  0  0  0  0  0
    5.9003   -0.9859   -1.8050 H   0  0  0  0  0  0  0  0  0  0  0  0
    6.2798    0.6717   -1.3060 H   0  0  0  0  0  0  0  0  0  0  0  0
    4.0111    0.4296   -2.0505 H   0  0  0  0  0  0  0  0  0  0  0  0
    3.6746   -0.9039   -0.9323 H   0  0  0  0  0  0  0  0  0  0  0  0
    3.9880    2.1171   -0.3906 H   0  0  0  0  0  0  0  0  0  0  0  0
    4.0106    1.0806    2.1021 H   0  0  0  0  0  0  0  0  0  0  0  0
    5.4304    1.8048    1.3068 H   0  0  0  0  0  0  0  0  0  0  0  0
    6.1324   -0.2171    2.2185 H   0  0  0  0  0  0  0  0  0  0  0  0
    4.6920   -1.1326    1.7570 H   0  0  0  0  0  0  0  0  0  0  0  0
    2.1613    0.6087    1.2441 H   0  0  0  0  0  0  0  0  0  0  0  0
    2.7071    2.3443   -1.9444 H   0  0  0  0  0  0  0  0  0  0  0  0
    0.8775    2.8477   -3.5390 H   0  0  0  0  0  0  0  0  0  0  0  0
   -1.8563    2.5198   -4.0756 H   0  0  0  0  0  0  0  0  0  0  0  0
   -8.1318    1.6961   -1.0415 H   0  0  0  0  0  0  0  0  0  0  0  0
   -9.9599    0.1280   -1.2161 H   0  0  0  0  0  0  0  0  0  0  0  0
   -9.5526   -2.2758   -1.1075 H   0  0  0  0  0  0  0  0  0  0  0  0
   -7.3023   -3.1662   -0.8165 H   0  0  0  0  0  0  0  0  0  0  0  0
   -4.5511   -2.2769   -0.5176 H   0  0  0  0  0  0  0  0  0  0  0  0
   -2.4040   -2.4078    0.4675 H   0  0  0  0  0  0  0  0  0  0  0  0
   -1.7961   -3.0757    2.7143 H   0  0  0  0  0  0  0  0  0  0  0  0
   -1.5692   -1.4331    4.4941 H   0  0  0  0  0  0  0  0  0  0  0  0
   -1.9747    0.9470    3.9949 H   0  0  0  0  0  0  0  0  0  0  0  0
   -2.6110    1.6596    1.6713 H   0  0  0  0  0  0  0  0  0  0  0  0
   -0.0338    0.2588    0.5180 H   0  0  0  0  0  0  0  0  0  0  0  0
  1  2  1  0
  2  3  1  0
  3  4  1  0
  4  5  1  0
  5  6  1  0
  6  7  1  0
  7  8  1  0
  6  9  1  0
  9 10  1  0
 10 11  2  0
 11 12  1  0
 12 13  2  0
 13 14  1  0
 14 15  1  0
 15 16  2  0
 15 17  1  0
 17 18  2  3
 18 19  1  0
 19 20  2  0
 20 21  1  0
 21 22  2  0
 22 23  1  0
 23 24  2  0
 24 25  1  0
 25 26  2  0
 26 27  1  0
 18 28  1  0
 28 29  2  0
 29 30  1  0
 30 31  2  0
 31 32  1  0
 32 33  2  0
 17 34  1  0
 34 35  2  0
  8  3  1  0
 35 10  1  0
 34 13  1  0
 27 19  1  0
 33 28  1  0
 26 21  1  0
  1 36  1  0
  1 37  1  0
  1 38  1  0
  2 39  1  0
  2 40  1  0
  4 41  1  0
  4 42  1  0
  5 43  1  0
  5 44  1  0
  6 45  1  0
  7 46  1  0
  7 47  1  0
  8 48  1  0
  8 49  1  0
  9 50  1  0
 11 51  1  0
 12 52  1  0
 14 53  1  0
 22 54  1  0
 23 55  1  0
 24 56  1  0
 25 57  1  0
 27 58  1  0
 29 59  1  0
 30 60  1  0
 31 61  1  0
 32 62  1  0
 33 63  1  0
 35 64  1  0
M  END
$$$$
[H]c1nc2c([H])c(OC([H])([H])C([H])([H])C([H])([H])N3C([H])([H])C([H])([H])C([H])([H])C([H])([H])C3([H])[H])c(OC([H])([H])[H])c([H])c2c(Oc2c([H])c([H])c(N([H])C(=O)C3(C(=O)N([H])c4c([H])c([H])c(F)c([H])c4[H])C([H])([H])C3([H])[H])c([H])c2F)c1[H]
     RDKit          3D

 82 87  0  0  0  0  0  0  0  0999 V2000
   -1.9209   -1.3333    3.0451 C   0  0  0  0  0  0  0  0  0  0  0  0
   -2.9832   -1.7818    2.2281 O   0  0  0  0  0  0  0  0  0  0  0  0
   -2.8786   -1.6448    0.8580 C   0  0  0  0  0  0  0  0  0  0  0  0
   -1.7316   -1.0680    0.2922 C   0  0  0  0  0  0  0  0  0  0  0  0
   -1.6665   -0.9491   -1.0819 C   0  0  0  0  0  0  0  0  0  0  0  0
   -0.4802   -0.3771   -1.6175 C   0  0  0  0  0  0  0  0  0  0  0  0
    0.4285   -0.0147   -0.7289 O   0  0  0  0  0  0  0  0  0  0  0  0
    1.6944    0.3930   -0.6360 C   0  0  0  0  0  0  0  0  0  0  0  0
    2.6188    0.4301   -1.6541 C   0  0  0  0  0  0  0  0  0  0  0  0
    3.9313    0.8745   -1.4820 C   0  0  0  0  0  0  0  0  0  0  0  0
    4.3763    1.3085   -0.2501 C   0  0  0  0  0  0  0  0  0  0  0  0
    5.7351    1.7029   -0.0852 N   0  0  0  0  0  0  0  0  0  0  0  0
    6.2268    2.6374    0.8165 C   0  0  0  0  0  0  0  0  0  0  0  0
    5.4560    3.2770    1.5746 O   0  0  0  0  0  0  0  0  0  0  0  0
    7.6644    2.9391    0.9238 C   0  0  0  0  0  0  0  0  0  0  0  0
    8.1038    4.3298    0.5798 C   0  0  0  0  0  0  0  0  0  0  0  0
    8.0915    3.9269    1.9833 C   0  0  0  0  0  0  0  0  0  0  0  0
    8.6209    1.8678    0.5623 C   0  0  0  0  0  0  0  0  0  0  0  0
    9.7692    2.2424    0.1832 O   0  0  0  0  0  0  0  0  0  0  0  0
    8.2825    0.5106    0.6434 N   0  0  0  0  0  0  0  0  0  0  0  0
    9.0724   -0.5986    0.3022 C   0  0  0  0  0  0  0  0  0  0  0  0
   10.2084   -0.5630   -0.4349 C   0  0  0  0  0  0  0  0  0  0  0  0
   10.9465   -1.7016   -0.7351 C   0  0  0  0  0  0  0  0  0  0  0  0
   10.4906   -2.9056   -0.2570 C   0  0  0  0  0  0  0  0  0  0  0  0
   11.1446   -4.0908   -0.4983 F   0  0  0  0  0  0  0  0  0  0  0  0
    9.3451   -2.9715    0.4910 C   0  0  0  0  0  0  0  0  0  0  0  0
    8.6479   -1.8328    0.7652 C   0  0  0  0  0  0  0  0  0  0  0  0
    3.4672    1.2778    0.7745 C   0  0  0  0  0  0  0  0  0  0  0  0
    2.1764    0.8442    0.6174 C   0  0  0  0  0  0  0  0  0  0  0  0
    1.3271    0.8450    1.6680 F   0  0  0  0  0  0  0  0  0  0  0  0
   -0.4426   -0.2893   -2.9832 C   0  0  0  0  0  0  0  0  0  0  0  0
   -1.5048   -0.7395   -3.7466 C   0  0  0  0  0  0  0  0  0  0  0  0
   -2.6043   -1.2729   -3.2053 N   0  0  0  0  0  0  0  0  0  0  0  0
   -2.6929   -1.3815   -1.8816 C   0  0  0  0  0  0  0  0  0  0  0  0
   -3.8279   -1.9550   -1.2977 C   0  0  0  0  0  0  0  0  0  0  0  0
   -3.9356   -2.0931    0.0657 C   0  0  0  0  0  0  0  0  0  0  0  0
   -4.9932   -2.6329    0.7070 O   0  0  0  0  0  0  0  0  0  0  0  0
   -6.1911   -3.1449    0.2709 C   0  0  0  0  0  0  0  0  0  0  0  0
   -7.1260   -2.1894   -0.4224 C   0  0  0  0  0  0  0  0  0  0  0  0
   -7.4688   -1.0934    0.5689 C   0  0  0  0  0  0  0  0  0  0  0  0
   -8.3291   -0.1089    0.0669 N   0  0  0  0  0  0  0  0  0  0  0  0
   -9.6473   -0.4624   -0.2620 C   0  0  0  0  0  0  0  0  0  0  0  0
  -10.5141    0.6511   -0.7176 C   0  0  0  0  0  0  0  0  0  0  0  0
  -10.0079    2.0229   -0.4173 C   0  0  0  0  0  0  0  0  0  0  0  0
   -8.5212    2.1759   -0.4928 C   0  0  0  0  0  0  0  0  0  0  0  0
   -7.8145    0.8762   -0.8225 C   0  0  0  0  0  0  0  0  0  0  0  0
   -0.9571   -1.8306    2.8366 H   0  0  0  0  0  0  0  0  0  0  0  0
   -2.2135   -1.4052    4.1324 H   0  0  0  0  0  0  0  0  0  0  0  0
   -1.7526   -0.2336    2.8951 H   0  0  0  0  0  0  0  0  0  0  0  0
   -0.9452   -0.7395    0.9402 H   0  0  0  0  0  0  0  0  0  0  0  0
    2.3175    0.0736   -2.6345 H   0  0  0  0  0  0  0  0  0  0  0  0
    4.6112    0.8751   -2.3332 H   0  0  0  0  0  0  0  0  0  0  0  0
    6.4199    1.2451   -0.7758 H   0  0  0  0  0  0  0  0  0  0  0  0
    9.0682    4.4257    0.0505 H   0  0  0  0  0  0  0  0  0  0  0  0
    7.3407    5.0399    0.2003 H   0  0  0  0  0  0  0  0  0  0  0  0
    7.3090    4.4067    2.6322 H   0  0  0  0  0  0  0  0  0  0  0  0
    8.9944    3.6337    2.5414 H   0  0  0  0  0  0  0  0  0  0  0  0
    7.3081    0.3234    1.0716 H   0  0  0  0  0  0  0  0  0  0  0  0
   10.5935    0.3593   -0.8357 H   0  0  0  0  0  0  0  0  0  0  0  0
   11.8477   -1.6521   -1.3218 H   0  0  0  0  0  0  0  0  0  0  0  0
    8.9858   -3.9396    0.8697 H   0  0  0  0  0  0  0  0  0  0  0  0
    7.7562   -1.9196    1.3508 H   0  0  0  0  0  0  0  0  0  0  0  0
    3.8168    1.6119    1.7731 H   0  0  0  0  0  0  0  0  0  0  0  0
    0.4064    0.1533   -3.4882 H   0  0  0  0  0  0  0  0  0  0  0  0
   -1.4365   -0.6527   -4.8218 H   0  0  0  0  0  0  0  0  0  0  0  0
   -4.5800   -2.2798   -1.9924 H   0  0  0  0  0  0  0  0  0  0  0  0
   -6.7356   -3.7231    1.0795 H   0  0  0  0  0  0  0  0  0  0  0  0
   -5.9359   -3.9712   -0.4667 H   0  0  0  0  0  0  0  0  0  0  0  0
   -8.0475   -2.8031   -0.6508 H   0  0  0  0  0  0  0  0  0  0  0  0
   -6.6975   -1.7771   -1.3246 H   0  0  0  0  0  0  0  0  0  0  0  0
   -6.4817   -0.5989    0.7986 H   0  0  0  0  0  0  0  0  0  0  0  0
   -7.8063   -1.5547    1.4933 H   0  0  0  0  0  0  0  0  0  0  0  0
   -9.6087   -1.2635   -1.0545 H   0  0  0  0  0  0  0  0  0  0  0  0
  -10.1067   -0.9890    0.6209 H   0  0  0  0  0  0  0  0  0  0  0  0
  -10.6583    0.5452   -1.8287 H   0  0  0  0  0  0  0  0  0  0  0  0
  -11.5245    0.5130   -0.2789 H   0  0  0  0  0  0  0  0  0  0  0  0
  -10.4700    2.7394   -1.1272 H   0  0  0  0  0  0  0  0  0  0  0  0
  -10.3387    2.3502    0.5933 H   0  0  0  0  0  0  0  0  0  0  0  0
   -8.2030    2.9114   -1.2614 H   0  0  0  0  0  0  0  0  0  0  0  0
   -8.0896    2.5269    0.4664 H   0  0  0  0  0  0  0  0  0  0  0  0
   -6.7254    1.0838   -0.6488 H   0  0  0  0  0  0  0  0  0  0  0  0
   -8.0046    0.5785   -1.8753 H   0  0  0  0  0  0  0  0  0  0  0  0
  1  2  1  0
  2  3  1  0
  3  4  2  0
  4  5  1  0
  5  6  2  0
  6  7  1  0
  7  8  1  0
  8  9  2  0
  9 10  1  0
 10 11  2  0
 11 12  1  0
 12 13  1  0
 13 14  2  0
 13 15  1  0
 15 16  1  0
 16 17  1  0
 15 18  1  0
 18 19  2  0
 18 20  1  0
 20 21  1  0
 21 22  2  0
 22 23  1  0
 23 24  2  0
 24 25  1  0
 24 26  1  0
 26 27  2  0
 11 28  1  0
 28 29  2  0
 29 30  1  0
  6 31  1  0
 31 32  2  0
 32 33  1  0
 33 34  2  0
 34 35  1  0
 35 36  2  0
 36 37  1  0
 37 38  1  0
 38 39  1  0
 39 40  1  0
 40 41  1  0
 41 42  1  0
 42 43  1  0
 43 44  1  0
 44 45  1  0
 45 46  1  0
 36  3  1  0
 46 41  1  0
 34  5  1  0
 29  8  1  0
 17 15  1  0
 27 21  1  0
  1 47  1  0
  1 48  1  0
  1 49  1  0
  4 50  1  0
  9 51  1  0
 10 52  1  0
 12 53  1  0
 16 54  1  0
 16 55  1  0
 17 56  1  0
 17 57  1  0
 20 58  1  0
 22 59  1  0
 23 60  1  0
 26 61  1  0
 27 62  1  0
 28 63  1  0
 31 64  1  0
 32 65  1  0
 35 66  1  0
 38 67  1  0
 38 68  1  0
 39 69  1  0
 39 70  1  0
 40 71  1  0
 40 72  1  0
 42 73  1  0
 42 74  1  0
 43 75  1  0
 43 76  1  0
 44 77  1  0
 44 78  1  0
 45 79  1  0
 45 80  1  0
 46 81  1  0
 46 82  1  0
M  END
$$$$
[H]c1nc(N2C([H])([H])C([H])([H])N(c3nc([H])c(C([H])([H])c4c([H])c([H])c([H])c([H])c4[H])c([H])n3)C([H])([H])C2([H])[H])c2c([H])c(OC([H])([H])[H])c(OC([H])([H])[H])c([H])c2n1
     RDKit          3D

 59 63  0  0  0  0  0  0  0  0999 V2000
    8.9370   -2.0792   -0.5938 C   0  0  0  0  0  0  0  0  0  0  0  0
    8.0065   -1.0583   -0.4388 O   0  0  0  0  0  0  0  0  0  0  0  0
    6.6525   -1.3740   -0.4221 C   0  0  0  0  0  0  0  0  0  0  0  0
    6.1878   -2.6616   -0.5215 C   0  0  0  0  0  0  0  0  0  0  0  0
    4.8492   -2.9737   -0.5057 C   0  0  0  0  0  0  0  0  0  0  0  0
    4.4354   -4.2420   -0.5856 N   0  0  0  0  0  0  0  0  0  0  0  0
    3.1255   -4.5121   -0.5523 C   0  0  0  0  0  0  0  0  0  0  0  0
    2.2027   -3.5555   -0.4429 N   0  0  0  0  0  0  0  0  0  0  0  0
    2.5537   -2.2309   -0.3567 C   0  0  0  0  0  0  0  0  0  0  0  0
    1.5731   -1.2367   -0.2813 N   0  0  0  0  0  0  0  0  0  0  0  0
    1.3206   -0.2770    0.7467 C   0  0  0  0  0  0  0  0  0  0  0  0
   -0.1403   -0.2571    1.2110 C   0  0  0  0  0  0  0  0  0  0  0  0
   -1.0586   -0.4053    0.1068 N   0  0  0  0  0  0  0  0  0  0  0  0
   -0.7728   -1.4498   -0.8919 C   0  0  0  0  0  0  0  0  0  0  0  0
    0.6271   -1.1769   -1.4274 C   0  0  0  0  0  0  0  0  0  0  0  0
   -2.2139    0.3990   -0.1081 C   0  0  0  0  0  0  0  0  0  0  0  0
   -2.3709    1.6464    0.2765 N   0  0  0  0  0  0  0  0  0  0  0  0
   -3.5041    2.3668    0.0551 C   0  0  0  0  0  0  0  0  0  0  0  0
   -4.5603    1.7405   -0.6193 C   0  0  0  0  0  0  0  0  0  0  0  0
   -5.8392    2.4234   -0.9304 C   0  0  0  0  0  0  0  0  0  0  0  0
   -6.7735    2.4350    0.2241 C   0  0  0  0  0  0  0  0  0  0  0  0
   -7.4515    1.3020    0.5504 C   0  0  0  0  0  0  0  0  0  0  0  0
   -8.3465    1.2974    1.6336 C   0  0  0  0  0  0  0  0  0  0  0  0
   -8.5075    2.4541    2.3333 C   0  0  0  0  0  0  0  0  0  0  0  0
   -7.8295    3.6008    2.0125 C   0  0  0  0  0  0  0  0  0  0  0  0
   -6.9465    3.6225    0.9531 C   0  0  0  0  0  0  0  0  0  0  0  0
   -4.3923    0.4478   -1.0141 C   0  0  0  0  0  0  0  0  0  0  0  0
   -3.2526   -0.2144   -0.7691 N   0  0  0  0  0  0  0  0  0  0  0  0
    3.8910   -1.9449   -0.3863 C   0  0  0  0  0  0  0  0  0  0  0  0
    4.4037   -0.6718   -0.2910 C   0  0  0  0  0  0  0  0  0  0  0  0
    5.7285   -0.3140   -0.3006 C   0  0  0  0  0  0  0  0  0  0  0  0
    6.2254    0.9743   -0.2039 O   0  0  0  0  0  0  0  0  0  0  0  0
    5.3228    2.0445   -0.0819 C   0  0  0  0  0  0  0  0  0  0  0  0
    9.9592   -1.7629   -0.2234 H   0  0  0  0  0  0  0  0  0  0  0  0
    9.0645   -2.5098   -1.5798 H   0  0  0  0  0  0  0  0  0  0  0  0
    8.6924   -2.9538    0.0895 H   0  0  0  0  0  0  0  0  0  0  0  0
    6.8856   -3.4975   -0.6247 H   0  0  0  0  0  0  0  0  0  0  0  0
    2.8144   -5.5399   -0.6145 H   0  0  0  0  0  0  0  0  0  0  0  0
    1.4923    0.7828    0.3892 H   0  0  0  0  0  0  0  0  0  0  0  0
    1.9445   -0.4115    1.6444 H   0  0  0  0  0  0  0  0  0  0  0  0
   -0.2959    0.6910    1.7444 H   0  0  0  0  0  0  0  0  0  0  0  0
   -0.2732   -1.1226    1.9254 H   0  0  0  0  0  0  0  0  0  0  0  0
   -1.5320   -1.4649   -1.6649 H   0  0  0  0  0  0  0  0  0  0  0  0
   -0.7049   -2.3970   -0.3213 H   0  0  0  0  0  0  0  0  0  0  0  0
    0.8854   -2.0002   -2.1043 H   0  0  0  0  0  0  0  0  0  0  0  0
    0.6376   -0.2058   -1.9149 H   0  0  0  0  0  0  0  0  0  0  0  0
   -3.6556    3.3744    0.3594 H   0  0  0  0  0  0  0  0  0  0  0  0
   -5.5902    3.4682   -1.2518 H   0  0  0  0  0  0  0  0  0  0  0  0
   -6.3493    1.9373   -1.7850 H   0  0  0  0  0  0  0  0  0  0  0  0
   -7.3377    0.3731    0.0092 H   0  0  0  0  0  0  0  0  0  0  0  0
   -8.8927    0.3939    1.9027 H   0  0  0  0  0  0  0  0  0  0  0  0
   -9.1960    2.4747    3.1755 H   0  0  0  0  0  0  0  0  0  0  0  0
   -7.9689    4.5154    2.5781 H   0  0  0  0  0  0  0  0  0  0  0  0
   -6.4034    4.5172    0.6883 H   0  0  0  0  0  0  0  0  0  0  0  0
   -5.1754   -0.0963   -1.5436 H   0  0  0  0  0  0  0  0  0  0  0  0
    3.6709    0.1203   -0.2146 H   0  0  0  0  0  0  0  0  0  0  0  0
    4.9780    2.4083   -1.0984 H   0  0  0  0  0  0  0  0  0  0  0  0
    4.4274    1.8261    0.5127 H   0  0  0  0  0  0  0  0  0  0  0  0
    5.8407    2.9604    0.3329 H   0  0  0  0  0  0  0  0  0  0  0  0
  1  2  1  0
  2  3  1  0
  3  4  2  0
  4  5  1  0
  5  6  2  0
  6  7  1  0
  7  8  2  0
  8  9  1  0
  9 10  1  0
 10 11  1  0
 11 12  1  0
 12 13  1  0
 13 14  1  0
 14 15  1  0
 13 16  1  0
 16 17  2  0
 17 18  1  0
 18 19  2  0
 19 20  1  0
 20 21  1  0
 21 22  2  0
 22 23  1  0
 23 24  2  0
 24 25  1  0
 25 26  2  0
 19 27  1  0
 27 28  2  0
  9 29  2  0
 29 30  1  0
 30 31  2  0
 31 32  1  0
 32 33  1  0
 31  3  1  0
 29  5  1  0
 15 10  1  0
 28 16  1  0
 26 21  1  0
  1 34  1  0
  1 35  1  0
  1 36  1  0
  4 37  1  0
  7 38  1  0
 11 39  1  0
 11 40  1  0
 12 41  1  0
 12 42  1  0
 14 43  1  0
 14 44  1  0
 15 45  1  0
 15 46  1  0
 18 47  1  0
 20 48  1  0
 20 49  1  0
 22 50  1  0
 23 51  1  0
 24 52  1  0
 25 53  1  0
 26 54  1  0
 27 55  1  0
 30 56  1  0
 33 57  1  0
 33 58  1  0
 33 59  1  0
M  END
$$$$
[H]c1c([H])c(N([H])C(=O)N([H])c2c([H])c([H])c(-c3c([H])c([H])c([H])c4onc(N([H])[H])c34)c([H])c2[H])c([H])c(C([H])([H])[H])c1[H]
     RDKit          3D

 45 48  0  0  0  0  0  0  0  0999 V2000
    8.2670   -0.4345   -0.4648 C   0  0  0  0  0  0  0  0  0  0  0  0
    6.9798   -0.2594    0.2625 C   0  0  0  0  0  0  0  0  0  0  0  0
    6.9961    0.1588    1.5897 C   0  0  0  0  0  0  0  0  0  0  0  0
    5.8215    0.3267    2.2799 C   0  0  0  0  0  0  0  0  0  0  0  0
    4.5812    0.0777    1.6533 C   0  0  0  0  0  0  0  0  0  0  0  0
    4.5336   -0.3335    0.3502 C   0  0  0  0  0  0  0  0  0  0  0  0
    3.3359   -0.5770   -0.3475 N   0  0  0  0  0  0  0  0  0  0  0  0
    2.0307   -0.1371   -0.0580 C   0  0  0  0  0  0  0  0  0  0  0  0
    1.8843    0.5794    0.9524 O   0  0  0  0  0  0  0  0  0  0  0  0
    0.9753   -0.5184   -0.9042 N   0  0  0  0  0  0  0  0  0  0  0  0
   -0.3811   -0.1603   -0.7571 C   0  0  0  0  0  0  0  0  0  0  0  0
   -1.3298   -0.8045   -1.5514 C   0  0  0  0  0  0  0  0  0  0  0  0
   -2.6586   -0.4895   -1.4632 C   0  0  0  0  0  0  0  0  0  0  0  0
   -3.1495    0.4662   -0.6022 C   0  0  0  0  0  0  0  0  0  0  0  0
   -2.2185    1.1082    0.1865 C   0  0  0  0  0  0  0  0  0  0  0  0
   -0.8647    0.7871    0.0959 C   0  0  0  0  0  0  0  0  0  0  0  0
   -4.5790    0.8009   -0.4957 C   0  0  0  0  0  0  0  0  0  0  0  0
   -5.0202    2.0769   -0.8282 C   0  0  0  0  0  0  0  0  0  0  0  0
   -6.3583    2.4011   -0.7797 C   0  0  0  0  0  0  0  0  0  0  0  0
   -7.3073    1.4868   -0.4037 C   0  0  0  0  0  0  0  0  0  0  0  0
   -6.8662    0.2224   -0.0731 C   0  0  0  0  0  0  0  0  0  0  0  0
   -7.5479   -0.8273    0.3186 O   0  0  0  0  0  0  0  0  0  0  0  0
   -6.7412   -1.8169    0.5316 N   0  0  0  0  0  0  0  0  0  0  0  0
   -5.4692   -1.4234    0.2746 C   0  0  0  0  0  0  0  0  0  0  0  0
   -4.3487   -2.2728    0.4325 N   0  0  0  0  0  0  0  0  0  0  0  0
   -5.5201   -0.1175   -0.1180 C   0  0  0  0  0  0  0  0  0  0  0  0
    5.7640   -0.4846   -0.2929 C   0  0  0  0  0  0  0  0  0  0  0  0
    8.9942    0.2924   -0.0593 H   0  0  0  0  0  0  0  0  0  0  0  0
    8.0586   -0.1108   -1.5221 H   0  0  0  0  0  0  0  0  0  0  0  0
    8.6192   -1.4661   -0.4903 H   0  0  0  0  0  0  0  0  0  0  0  0
    7.9352    0.3497    2.0718 H   0  0  0  0  0  0  0  0  0  0  0  0
    5.8116    0.6484    3.3038 H   0  0  0  0  0  0  0  0  0  0  0  0
    3.6942    0.2171    2.2637 H   0  0  0  0  0  0  0  0  0  0  0  0
    3.4422   -1.1883   -1.2201 H   0  0  0  0  0  0  0  0  0  0  0  0
    1.2699   -1.1359   -1.7254 H   0  0  0  0  0  0  0  0  0  0  0  0
   -0.9858   -1.5474   -2.2267 H   0  0  0  0  0  0  0  0  0  0  0  0
   -3.3637   -1.0188   -2.1161 H   0  0  0  0  0  0  0  0  0  0  0  0
   -2.5763    1.8668    0.8748 H   0  0  0  0  0  0  0  0  0  0  0  0
   -0.2204    1.3517    0.7469 H   0  0  0  0  0  0  0  0  0  0  0  0
   -4.2810    2.7940   -1.1222 H   0  0  0  0  0  0  0  0  0  0  0  0
   -6.7073    3.4012   -1.0405 H   0  0  0  0  0  0  0  0  0  0  0  0
   -8.3574    1.7248   -0.3615 H   0  0  0  0  0  0  0  0  0  0  0  0
   -3.5880   -2.0645    1.1106 H   0  0  0  0  0  0  0  0  0  0  0  0
   -4.2803   -3.1408   -0.1515 H   0  0  0  0  0  0  0  0  0  0  0  0
    5.7260   -0.8090   -1.3216 H   0  0  0  0  0  0  0  0  0  0  0  0
  1  2  1  0
  2  3  2  0
  3  4  1  0
  4  5  2  0
  5  6  1  0
  6  7  1  0
  7  8  1  0
  8  9  2  0
  8 10  1  0
 10 11  1  0
 11 12  2  0
 12 13  1  0
 13 14  2  0
 14 15  1  0
 15 16  2  0
 14 17  1  0
 17 18  2  0
 18 19  1  0
 19 20  2  0
 20 21  1  0
 21 22  1  0
 22 23  1  0
 23 24  2  0
 24 25  1  0
 24 26  1  0
  6 27  2  0
 27  2  1  0
 16 11  1  0
 26 17  1  0
 26 21  2  0
  1 28  1  0
  1 29  1  0
  1 30  1  0
  3 31  1  0
  4 32  1  0
  5 33  1  0
  7 34  1  0
 10 35  1  0
 12 36  1  0
 13 37  1  0
 15 38  1  0
 16 39  1  0
 18 40  1  0
 19 41  1  0
 20 42  1  0
 25 43  1  0
 25 44  1  0
 27 45  1  0
M  END
$$$$
