[H]c1nc(N([H])c2c([H])c([H])c(N3C([H])([H])C([H])([H])N(c4c([H])c([H])c([H])c([H])c4[H])C([H])([H])C3([H])[H])c([H])c2OC([H])([H])[H])nc(N([H])c2c([H])c([H])c([H])c([H])c2P(=O)(C([H])([H])[H])C([H])([H])[H])c1Cl
     RDKit          3D

 71 75  0  0  0  0  0  0  0  0999 V2000
    0.7147   -2.5699   -3.0310 C   0  0  0  0  0  0  0  0  0  0  0  0
    0.0421   -1.8118   -2.0587 O   0  0  0  0  0  0  0  0  0  0  0  0
    0.8135   -1.2172   -1.0423 C   0  0  0  0  0  0  0  0  0  0  0  0
    2.1698   -1.3998   -1.0503 C   0  0  0  0  0  0  0  0  0  0  0  0
    2.9544   -0.8434   -0.0884 C   0  0  0  0  0  0  0  0  0  0  0  0
    2.3216   -0.0977    0.8798 C   0  0  0  0  0  0  0  0  0  0  0  0
    0.9326    0.0949    0.8947 C   0  0  0  0  0  0  0  0  0  0  0  0
    0.1318   -0.4639   -0.0740 C   0  0  0  0  0  0  0  0  0  0  0  0
   -1.2563   -0.3486   -0.1522 N   0  0  0  0  0  0  0  0  0  0  0  0
   -2.1298    0.4106    0.6382 C   0  0  0  0  0  0  0  0  0  0  0  0
   -1.7733    1.2082    1.6535 N   0  0  0  0  0  0  0  0  0  0  0  0
   -2.6069    1.9219    2.3992 C   0  0  0  0  0  0  0  0  0  0  0  0
   -3.9646    1.8703    2.1447 C   0  0  0  0  0  0  0  0  0  0  0  0
   -5.1237    2.7816    3.0712 Cl  0  0  0  0  0  0  0  0  0  0  0  0
   -4.3934    1.0524    1.0938 C   0  0  0  0  0  0  0  0  0  0  0  0
   -5.7820    1.0100    0.8258 N   0  0  0  0  0  0  0  0  0  0  0  0
   -6.4791    0.2788   -0.1517 C   0  0  0  0  0  0  0  0  0  0  0  0
   -5.9257   -0.6912   -0.9636 C   0  0  0  0  0  0  0  0  0  0  0  0
   -6.7217   -1.3673   -1.8743 C   0  0  0  0  0  0  0  0  0  0  0  0
   -8.0590   -1.1255   -2.0196 C   0  0  0  0  0  0  0  0  0  0  0  0
   -8.6111   -0.1619   -1.2131 C   0  0  0  0  0  0  0  0  0  0  0  0
   -7.8551    0.5422   -0.2877 C   0  0  0  0  0  0  0  0  0  0  0  0
   -8.6120    1.7942    0.7155 P   0  0  0  0  0  0  0  0  0  0  0  0
  -10.3101    2.0551    0.0475 C   0  0  0  0  0  0  0  0  0  0  0  0
   -8.8329    1.3172    2.4329 C   0  0  0  0  0  0  0  0  0  0  0  0
   -7.9462    3.1540    0.5537 O   0  0  0  0  0  0  0  0  0  0  0  0
   -3.4741    0.3745    0.4036 N   0  0  0  0  0  0  0  0  0  0  0  0
    4.3689   -0.9917   -0.0705 N   0  0  0  0  0  0  0  0  0  0  0  0
    5.0466   -1.3669   -1.2920 C   0  0  0  0  0  0  0  0  0  0  0  0
    6.3532   -0.5982   -1.4357 C   0  0  0  0  0  0  0  0  0  0  0  0
    7.1162   -0.6363   -0.2038 N   0  0  0  0  0  0  0  0  0  0  0  0
    6.5655   -1.2453    0.9616 C   0  0  0  0  0  0  0  0  0  0  0  0
    5.1238   -0.7921    1.1414 C   0  0  0  0  0  0  0  0  0  0  0  0
    8.4088   -0.0512   -0.1957 C   0  0  0  0  0  0  0  0  0  0  0  0
    9.3338   -0.2432    0.8201 C   0  0  0  0  0  0  0  0  0  0  0  0
   10.5566    0.3808    0.7420 C   0  0  0  0  0  0  0  0  0  0  0  0
   10.9121    1.2044   -0.3192 C   0  0  0  0  0  0  0  0  0  0  0  0
    9.9824    1.3784   -1.3100 C   0  0  0  0  0  0  0  0  0  0  0  0
    8.7648    0.7762   -1.2634 C   0  0  0  0  0  0  0  0  0  0  0  0
    1.4165   -1.9341   -3.6085 H   0  0  0  0  0  0  0  0  0  0  0  0
    0.0260   -3.0742   -3.7367 H   0  0  0  0  0  0  0  0  0  0  0  0
    1.3607   -3.3554   -2.5398 H   0  0  0  0  0  0  0  0  0  0  0  0
    2.6647   -1.9966   -1.8205 H   0  0  0  0  0  0  0  0  0  0  0  0
    2.9161    0.3648    1.6664 H   0  0  0  0  0  0  0  0  0  0  0  0
    0.4967    0.6792    1.6736 H   0  0  0  0  0  0  0  0  0  0  0  0
   -1.7323   -0.9227   -0.9231 H   0  0  0  0  0  0  0  0  0  0  0  0
   -2.2943    2.5703    3.2278 H   0  0  0  0  0  0  0  0  0  0  0  0
   -6.3778    1.6027    1.4649 H   0  0  0  0  0  0  0  0  0  0  0  0
   -4.8767   -0.9224   -0.8804 H   0  0  0  0  0  0  0  0  0  0  0  0
   -6.2212   -2.1224   -2.4888 H   0  0  0  0  0  0  0  0  0  0  0  0
   -8.6489   -1.6515   -2.7185 H   0  0  0  0  0  0  0  0  0  0  0  0
   -9.6863    0.0529   -1.3067 H   0  0  0  0  0  0  0  0  0  0  0  0
  -10.3469    1.9460   -1.0390 H   0  0  0  0  0  0  0  0  0  0  0  0
  -10.6773    3.0609    0.3493 H   0  0  0  0  0  0  0  0  0  0  0  0
  -10.9743    1.2954    0.5012 H   0  0  0  0  0  0  0  0  0  0  0  0
   -9.8527    1.5673    2.8009 H   0  0  0  0  0  0  0  0  0  0  0  0
   -8.0905    1.7160    3.1220 H   0  0  0  0  0  0  0  0  0  0  0  0
   -8.7660    0.2021    2.5052 H   0  0  0  0  0  0  0  0  0  0  0  0
    4.4197   -1.0504   -2.1437 H   0  0  0  0  0  0  0  0  0  0  0  0
    5.2001   -2.4573   -1.2595 H   0  0  0  0  0  0  0  0  0  0  0  0
    6.9562   -1.0920   -2.2163 H   0  0  0  0  0  0  0  0  0  0  0  0
    6.1428    0.4256   -1.7476 H   0  0  0  0  0  0  0  0  0  0  0  0
    7.1111   -0.9724    1.8731 H   0  0  0  0  0  0  0  0  0  0  0  0
    6.6226   -2.3485    0.8379 H   0  0  0  0  0  0  0  0  0  0  0  0
    5.1502    0.2668    1.4459 H   0  0  0  0  0  0  0  0  0  0  0  0
    4.7184   -1.4307    1.9772 H   0  0  0  0  0  0  0  0  0  0  0  0
    9.0756   -0.8786    1.6399 H   0  0  0  0  0  0  0  0  0  0  0  0
   11.2702    0.2259    1.5452 H   0  0  0  0  0  0  0  0  0  0  0  0
   11.8877    1.6607   -0.3131 H   0  0  0  0  0  0  0  0  0  0  0  0
   10.2745    2.0351   -2.1457 H   0  0  0  0  0  0  0  0  0  0  0  0
    8.0793    0.9551   -2.0701 H   0  0  0  0  0  0  0  0  0  0  0  0
  1  2  1  0
  2  3  1  0
  3  4  2  0
  4  5  1  0
  5  6  2  0
  6  7  1  0
  7  8  2  0
  8  9  1  0
  9 10  1  0
 10 11  2  0
 11 12  1  0
 12 13  2  0
 13 14  1  0
 13 15  1  0
 15 16  1  0
 16 17  1  0
 17 18  2  0
 18 19  1  0
 19 20  2  0
 20 21  1  0
 21 22  2  0
 22 23  1  0
 23 24  1  0
 23 25  1  0
 23 26  2  0
 15 27  2  0
  5 28  1  0
 28 29  1  0
 29 30  1  0
 30 31  1  0
 31 32  1  0
 32 33  1  0
 31 34  1  0
 34 35  2  0
 35 36  1  0
 36 37  2  0
 37 38  1  0
 38 39  2  0
  8  3  1  0
 27 10  1  0
 33 28  1  0
 39 34  1  0
 22 17  1  0
  1 40  1  0
  1 41  1  0
  1 42  1  0
  4 43  1  0
  6 44  1  0
  7 45  1  0
  9 46  1  0
 12 47  1  0
 16 48  1  0
 18 49  1  0
 19 50  1  0
 20 51  1  0
 21 52  1  0
 24 53  1  0
 24 54  1  0
 24 55  1  0
 25 56  1  0
 25 57  1  0
 25 58  1  0
 29 59  1  0
 29 60  1  0
 30 61  1  0
 30 62  1  0
 32 63  1  0
 32 64  1  0
 33 65  1  0
 33 66  1  0
 35 67  1  0
 36 68  1  0
 37 69  1  0
 38 70  1  0
 39 71  1  0
M  END
$$$$
[H]OC(=O)C([H])([H])[C@@]([H])(C(=O)N([H])[C@@]([H])(C(=O)N1C([H])([H])C([H])([H])C([H])([H])[C@@]1([H])C(=O)N([H])[C@@]([H])(C(=O)N([H])[C@@]([H])(C([H])([H])C([H])(C([H])([H])[H])C([H])([H])[H])C(C([H])([H])[H])(C([H])([H])[H])C([H])([H])[H])C([H])([H])c1c([H])c([H])c(O[H])c([H])c1[H])C([H])([H])c1c([H])c([H])c([H])c([H])c1[H])N([H])C(=O)[C@@]([H])(N([H])C(=O)[C@@]([H])(N([H])C(=O)OC([H])([H])c1c([H])c([H])c([H])c([H])c1[H])C([H])([H])c1c([H])c([H])c([H])c([H])c1[H])C([H])([H])c1c([H])c([H])c([H])c([H])c1[H]
     RDKit          3D

155160  0  0  0  0  0  0  0  0999 V2000
  -10.6995   -2.0702   -3.0699 C   0  0  0  0  0  0  0  0  0  0  0  0
  -11.3392   -1.2188   -1.8671 C   0  0  0  0  0  0  0  0  0  0  0  0
  -12.4765   -2.0657   -1.4394 C   0  0  0  0  0  0  0  0  0  0  0  0
  -10.2143   -0.8159   -1.0516 C   0  0  0  0  0  0  0  0  0  0  0  0
  -10.1445    0.0431    0.1588 C   0  0  2  0  0  0  0  0  0  0  0  0
   -8.9347    0.3102    0.6287 N   0  0  0  0  0  0  0  0  0  0  0  0
   -7.7498    0.9471    1.2199 C   0  0  0  0  0  0  0  0  0  0  0  0
   -7.8917    2.1562    1.6300 O   0  0  0  0  0  0  0  0  0  0  0  0
   -6.4346    0.4017    1.3873 C   0  0  1  0  0  0  0  0  0  0  0  0
   -5.9560   -0.9203    0.9958 C   0  0  0  0  0  0  0  0  0  0  0  0
   -6.6336   -2.0727    1.6907 C   0  0  0  0  0  0  0  0  0  0  0  0
   -7.5200   -2.8408    0.9531 C   0  0  0  0  0  0  0  0  0  0  0  0
   -8.1780   -3.9218    1.6225 C   0  0  0  0  0  0  0  0  0  0  0  0
   -7.9243   -4.1542    2.9072 C   0  0  0  0  0  0  0  0  0  0  0  0
   -8.6041   -5.2517    3.5289 O   0  0  0  0  0  0  0  0  0  0  0  0
   -7.0511   -3.4214    3.6956 C   0  0  0  0  0  0  0  0  0  0  0  0
   -6.4157   -2.3503    2.9831 C   0  0  0  0  0  0  0  0  0  0  0  0
   -5.4484    1.4570    1.0459 N   0  0  0  0  0  0  0  0  0  0  0  0
   -4.3206    1.6712    1.8647 C   0  0  0  0  0  0  0  0  0  0  0  0
   -4.1111    0.9601    2.8458 O   0  0  0  0  0  0  0  0  0  0  0  0
   -3.4439    2.7433    1.5004 C   0  0  2  0  0  0  0  0  0  0  0  0
   -4.0244    3.6953    0.4682 C   0  0  0  0  0  0  0  0  0  0  0  0
   -2.8771    4.6647    0.3283 C   0  0  0  0  0  0  0  0  0  0  0  0
   -1.7660    4.0862    1.2112 C   0  0  0  0  0  0  0  0  0  0  0  0
   -2.1141    2.6025    1.0961 N   0  0  0  0  0  0  0  0  0  0  0  0
   -1.1327    1.7304    0.6753 C   0  0  0  0  0  0  0  0  0  0  0  0
    0.0501    2.3480    0.5030 O   0  0  0  0  0  0  0  0  0  0  0  0
   -0.9745    0.3385    0.3499 C   0  0  1  0  0  0  0  0  0  0  0  0
   -0.7489    0.3038   -1.2044 C   0  0  0  0  0  0  0  0  0  0  0  0
   -1.9123    0.8523   -1.9574 C   0  0  0  0  0  0  0  0  0  0  0  0
   -3.0231    0.0336   -2.2492 C   0  0  0  0  0  0  0  0  0  0  0  0
   -4.0471    0.6190   -2.9998 C   0  0  0  0  0  0  0  0  0  0  0  0
   -3.9828    1.9231   -3.4274 C   0  0  0  0  0  0  0  0  0  0  0  0
   -2.8895    2.7105   -3.1280 C   0  0  0  0  0  0  0  0  0  0  0  0
   -1.8503    2.1370   -2.3765 C   0  0  0  0  0  0  0  0  0  0  0  0
    0.3233   -0.0573    0.9046 N   0  0  0  0  0  0  0  0  0  0  0  0
    1.4540   -0.6195    0.3111 C   0  0  0  0  0  0  0  0  0  0  0  0
    1.4774   -0.8589   -0.9061 O   0  0  0  0  0  0  0  0  0  0  0  0
    2.7029   -0.9540    1.0445 C   0  0  2  0  0  0  0  0  0  0  0  0
    2.6905   -1.3932    2.4273 C   0  0  0  0  0  0  0  0  0  0  0  0
    2.1955   -0.6357    3.5263 C   0  0  0  0  0  0  0  0  0  0  0  0
    2.6396    0.5892    3.9983 O   0  0  0  0  0  0  0  0  0  0  0  0
    1.1882   -1.0845    4.2475 O   0  0  0  0  0  0  0  0  0  0  0  0
    3.8424   -0.2292    0.6077 N   0  0  0  0  0  0  0  0  0  0  0  0
    4.9344   -0.4841   -0.2228 C   0  0  0  0  0  0  0  0  0  0  0  0
    5.1606   -1.5149   -0.8644 O   0  0  0  0  0  0  0  0  0  0  0  0
    5.9574    0.6409   -0.3323 C   0  0  2  0  0  0  0  0  0  0  0  0
    5.3641    1.8667   -1.0178 C   0  0  0  0  0  0  0  0  0  0  0  0
    5.0095    1.6511   -2.4434 C   0  0  0  0  0  0  0  0  0  0  0  0
    3.9197    1.0789   -2.9190 C   0  0  0  0  0  0  0  0  0  0  0  0
    3.7093    0.9714   -4.3009 C   0  0  0  0  0  0  0  0  0  0  0  0
    4.6269    1.4616   -5.1859 C   0  0  0  0  0  0  0  0  0  0  0  0
    5.7660    2.0602   -4.7017 C   0  0  0  0  0  0  0  0  0  0  0  0
    5.9673    2.1577   -3.3546 C   0  0  0  0  0  0  0  0  0  0  0  0
    7.1106    0.2319   -1.0594 N   0  0  0  0  0  0  0  0  0  0  0  0
    8.3413   -0.1742   -0.3979 C   0  0  0  0  0  0  0  0  0  0  0  0
    8.4227   -0.2393    0.8193 O   0  0  0  0  0  0  0  0  0  0  0  0
    9.5061   -0.4842   -1.3162 C   0  0  2  0  0  0  0  0  0  0  0  0
    9.1318   -1.2080   -2.5544 C   0  0  0  0  0  0  0  0  0  0  0  0
   10.2815   -1.4345   -3.4451 C   0  0  0  0  0  0  0  0  0  0  0  0
   10.8617   -2.7040   -3.6145 C   0  0  0  0  0  0  0  0  0  0  0  0
   11.9350   -2.8929   -4.4432 C   0  0  0  0  0  0  0  0  0  0  0  0
   12.4860   -1.8326   -5.1385 C   0  0  0  0  0  0  0  0  0  0  0  0
   11.9242   -0.5763   -4.9799 C   0  0  0  0  0  0  0  0  0  0  0  0
   10.8493   -0.4021   -4.1511 C   0  0  0  0  0  0  0  0  0  0  0  0
   10.6071   -0.9840   -0.5643 N   0  0  0  0  0  0  0  0  0  0  0  0
   11.4096   -0.2330    0.3339 C   0  0  0  0  0  0  0  0  0  0  0  0
   11.0516    1.0222    0.4122 O   0  0  0  0  0  0  0  0  0  0  0  0
   12.3857   -0.5584    1.0685 O   0  0  0  0  0  0  0  0  0  0  0  0
   13.3909   -0.6259    1.9132 C   0  0  0  0  0  0  0  0  0  0  0  0
   13.0984   -0.3317    3.3321 C   0  0  0  0  0  0  0  0  0  0  0  0
   12.9236   -1.2794    4.3060 C   0  0  0  0  0  0  0  0  0  0  0  0
   12.6376   -1.0288    5.6064 C   0  0  0  0  0  0  0  0  0  0  0  0
   12.5041    0.3173    6.0164 C   0  0  0  0  0  0  0  0  0  0  0  0
   12.6712    1.2774    5.0818 C   0  0  0  0  0  0  0  0  0  0  0  0
   12.9673    0.9985    3.7418 C   0  0  0  0  0  0  0  0  0  0  0  0
  -11.2359   -0.1846    1.2266 C   0  0  0  0  0  0  0  0  0  0  0  0
  -11.3045   -1.5883    1.7274 C   0  0  0  0  0  0  0  0  0  0  0  0
  -12.5541    0.3789    0.8671 C   0  0  0  0  0  0  0  0  0  0  0  0
  -10.8462    0.6518    2.5091 C   0  0  0  0  0  0  0  0  0  0  0  0
   -9.7579   -1.5342   -3.2675 H   0  0  0  0  0  0  0  0  0  0  0  0
  -10.6084   -3.0970   -2.7438 H   0  0  0  0  0  0  0  0  0  0  0  0
  -11.3862   -1.8992   -3.9176 H   0  0  0  0  0  0  0  0  0  0  0  0
  -11.7796   -0.3378   -2.4468 H   0  0  0  0  0  0  0  0  0  0  0  0
  -12.2659   -2.8510   -0.7065 H   0  0  0  0  0  0  0  0  0  0  0  0
  -12.8400   -2.6990   -2.3536 H   0  0  0  0  0  0  0  0  0  0  0  0
  -13.4153   -1.5536   -1.1702 H   0  0  0  0  0  0  0  0  0  0  0  0
   -9.3748   -0.4594   -1.7600 H   0  0  0  0  0  0  0  0  0  0  0  0
   -9.7175   -1.8474   -0.7626 H   0  0  0  0  0  0  0  0  0  0  0  0
  -10.6262    1.0558   -0.3150 H   0  0  0  0  0  0  0  0  0  0  0  0
   -9.5151    1.5318    1.1029 H   0  0  0  0  0  0  0  0  0  0  0  0
   -6.2948    0.3707    2.5582 H   0  0  0  0  0  0  0  0  0  0  0  0
   -6.1893   -1.0614   -0.0986 H   0  0  0  0  0  0  0  0  0  0  0  0
   -4.8457   -1.0367    1.0330 H   0  0  0  0  0  0  0  0  0  0  0  0
   -7.7049   -2.6545   -0.0750 H   0  0  0  0  0  0  0  0  0  0  0  0
   -8.8601   -4.5140    1.0218 H   0  0  0  0  0  0  0  0  0  0  0  0
   -9.5066   -5.0558    3.9709 H   0  0  0  0  0  0  0  0  0  0  0  0
   -6.8509   -3.6164    4.7172 H   0  0  0  0  0  0  0  0  0  0  0  0
   -5.7338   -1.7430    3.5654 H   0  0  0  0  0  0  0  0  0  0  0  0
   -5.6424    2.0113    0.1919 H   0  0  0  0  0  0  0  0  0  0  0  0
   -3.3903    3.4052    2.4549 H   0  0  0  0  0  0  0  0  0  0  0  0
   -4.2813    3.2373   -0.4897 H   0  0  0  0  0  0  0  0  0  0  0  0
   -4.8972    4.2498    0.8542 H   0  0  0  0  0  0  0  0  0  0  0  0
   -3.1077    5.6514    0.7649 H   0  0  0  0  0  0  0  0  0  0  0  0
   -2.5279    4.7820   -0.7329 H   0  0  0  0  0  0  0  0  0  0  0  0
   -1.9098    4.2861    2.2810 H   0  0  0  0  0  0  0  0  0  0  0  0
   -0.7817    4.3021    0.8600 H   0  0  0  0  0  0  0  0  0  0  0  0
   -1.7511   -0.3965    0.4296 H   0  0  0  0  0  0  0  0  0  0  0  0
   -0.6636   -0.7432   -1.5010 H   0  0  0  0  0  0  0  0  0  0  0  0
    0.1235    0.9319   -1.3849 H   0  0  0  0  0  0  0  0  0  0  0  0
   -3.0704   -0.9876   -1.9166 H   0  0  0  0  0  0  0  0  0  0  0  0
   -4.9076   -0.0040   -3.2285 H   0  0  0  0  0  0  0  0  0  0  0  0
   -4.8034    2.3523   -4.0007 H   0  0  0  0  0  0  0  0  0  0  0  0
   -2.7965    3.7500   -3.4359 H   0  0  0  0  0  0  0  0  0  0  0  0
   -0.9868    2.7855   -2.1380 H   0  0  0  0  0  0  0  0  0  0  0  0
    0.3998    0.1565    1.9277 H   0  0  0  0  0  0  0  0  0  0  0  0
    2.9454   -2.0168    0.4765 H   0  0  0  0  0  0  0  0  0  0  0  0
    2.2151   -2.4300    2.4855 H   0  0  0  0  0  0  0  0  0  0  0  0
    3.7970   -1.6847    2.6677 H   0  0  0  0  0  0  0  0  0  0  0  0
    2.1314    1.2186    4.5986 H   0  0  0  0  0  0  0  0  0  0  0  0
    3.8519    0.7915    1.0511 H   0  0  0  0  0  0  0  0  0  0  0  0
    6.2243    0.8768    0.6916 H   0  0  0  0  0  0  0  0  0  0  0  0
    4.4304    2.1679   -0.4845 H   0  0  0  0  0  0  0  0  0  0  0  0
    6.0854    2.6836   -0.9358 H   0  0  0  0  0  0  0  0  0  0  0  0
    3.1479    0.6622   -2.2765 H   0  0  0  0  0  0  0  0  0  0  0  0
    2.8134    0.4920   -4.6226 H   0  0  0  0  0  0  0  0  0  0  0  0
    4.5051    1.3901   -6.2672 H   0  0  0  0  0  0  0  0  0  0  0  0
    6.4954    2.4396   -5.4047 H   0  0  0  0  0  0  0  0  0  0  0  0
    6.8657    2.6496   -3.0180 H   0  0  0  0  0  0  0  0  0  0  0  0
    7.0902    0.2023   -2.0911 H   0  0  0  0  0  0  0  0  0  0  0  0
    9.7838    0.5887   -1.6458 H   0  0  0  0  0  0  0  0  0  0  0  0
    8.3347   -0.7407   -3.1496 H   0  0  0  0  0  0  0  0  0  0  0  0
    8.7322   -2.2487   -2.2894 H   0  0  0  0  0  0  0  0  0  0  0  0
   10.4140   -3.5192   -3.0535 H   0  0  0  0  0  0  0  0  0  0  0  0
   12.3597   -3.8952   -4.5561 H   0  0  0  0  0  0  0  0  0  0  0  0
   13.3361   -1.9822   -5.8150 H   0  0  0  0  0  0  0  0  0  0  0  0
   12.3196    0.2855   -5.4922 H   0  0  0  0  0  0  0  0  0  0  0  0
   10.3861    0.5892   -4.0161 H   0  0  0  0  0  0  0  0  0  0  0  0
   10.8699   -2.0052   -0.6871 H   0  0  0  0  0  0  0  0  0  0  0  0
   14.2738    0.0536    1.6786 H   0  0  0  0  0  0  0  0  0  0  0  0
   13.8492   -1.6768    1.8907 H   0  0  0  0  0  0  0  0  0  0  0  0
   13.0357   -2.3378    3.9793 H   0  0  0  0  0  0  0  0  0  0  0  0
   12.4942   -1.7576    6.3728 H   0  0  0  0  0  0  0  0  0  0  0  0
   12.2923    0.5228    7.0646 H   0  0  0  0  0  0  0  0  0  0  0  0
   12.5700    2.3275    5.4261 H   0  0  0  0  0  0  0  0  0  0  0  0
   13.0811    1.8001    3.0180 H   0  0  0  0  0  0  0  0  0  0  0  0
  -10.7712   -1.6934    2.7156 H   0  0  0  0  0  0  0  0  0  0  0  0
  -10.7131   -2.2703    1.0428 H   0  0  0  0  0  0  0  0  0  0  0  0
  -12.3245   -1.9217    1.8687 H   0  0  0  0  0  0  0  0  0  0  0  0
  -12.7986    1.3570    1.4102 H   0  0  0  0  0  0  0  0  0  0  0  0
  -12.6295    0.7169   -0.2038 H   0  0  0  0  0  0  0  0  0  0  0  0
  -13.4353   -0.2433    1.1168 H   0  0  0  0  0  0  0  0  0  0  0  0
  -11.4787    0.1478    3.3158 H   0  0  0  0  0  0  0  0  0  0  0  0
  -11.1825    1.6683    2.4289 H   0  0  0  0  0  0  0  0  0  0  0  0
   -9.8317    0.4464    2.7858 H   0  0  0  0  0  0  0  0  0  0  0  0
  1  2  1  0
  2  3  1  0
  2  4  1  0
  4  5  1  0
  5  6  1  0
  6  7  1  0
  7  8  2  0
  7  9  1  0
  9 10  1  0
 10 11  1  0
 11 12  2  0
 12 13  1  0
 13 14  2  0
 14 15  1  0
 14 16  1  0
 16 17  2  0
  9 18  1  0
 18 19  1  0
 19 20  2  0
 19 21  1  0
 21 22  1  0
 22 23  1  0
 23 24  1  0
 24 25  1  0
 25 26  1  0
 26 27  2  0
 26 28  1  0
 28 29  1  0
 29 30  1  0
 30 31  2  0
 31 32  1  0
 32 33  2  0
 33 34  1  0
 34 35  2  0
 28 36  1  0
 36 37  1  0
 37 38  2  0
 37 39  1  0
 39 40  1  0
 40 41  1  0
 41 42  1  0
 41 43  2  0
 39 44  1  0
 44 45  1  0
 45 46  2  0
 45 47  1  0
 47 48  1  0
 48 49  1  0
 49 50  2  0
 50 51  1  0
 51 52  2  0
 52 53  1  0
 53 54  2  0
 47 55  1  0
 55 56  1  0
 56 57  2  0
 56 58  1  0
 58 59  1  0
 59 60  1  0
 60 61  2  0
 61 62  1  0
 62 63  2  0
 63 64  1  0
 64 65  2  0
 58 66  1  0
 66 67  1  0
 67 68  2  0
 67 69  1  0
 69 70  1  0
 70 71  1  0
 71 72  2  0
 72 73  1  0
 73 74  2  0
 74 75  1  0
 75 76  2  0
  5 77  1  0
 77 78  1  0
 77 79  1  0
 77 80  1  0
 17 11  1  0
 25 21  1  0
 35 30  1  0
 54 49  1  0
 65 60  1  0
 76 71  1  0
  1 81  1  0
  1 82  1  0
  1 83  1  0
  2 84  1  0
  3 85  1  0
  3 86  1  0
  3 87  1  0
  4 88  1  0
  4 89  1  0
  5 90  1  6
  6 91  1  0
  9 92  1  1
 10 93  1  0
 10 94  1  0
 12 95  1  0
 13 96  1  0
 15 97  1  0
 16 98  1  0
 17 99  1  0
 18100  1  0
 21101  1  1
 22102  1  0
 22103  1  0
 23104  1  0
 23105  1  0
 24106  1  0
 24107  1  0
 28108  1  6
 29109  1  0
 29110  1  0
 31111  1  0
 32112  1  0
 33113  1  0
 34114  1  0
 35115  1  0
 36116  1  0
 39117  1  6
 40118  1  0
 40119  1  0
 42120  1  0
 44121  1  0
 47122  1  1
 48123  1  0
 48124  1  0
 50125  1  0
 51126  1  0
 52127  1  0
 53128  1  0
 54129  1  0
 55130  1  0
 58131  1  6
 59132  1  0
 59133  1  0
 61134  1  0
 62135  1  0
 63136  1  0
 64137  1  0
 65138  1  0
 66139  1  0
 70140  1  0
 70141  1  0
 72142  1  0
 73143  1  0
 74144  1  0
 75145  1  0
 76146  1  0
 78147  1  0
 78148  1  0
 78149  1  0
 79150  1  0
 79151  1  0
 79152  1  0
 80153  1  0
 80154  1  0
 80155  1  0
M  END
$$$$
[H]c1c([H])c([C@@]2([H])C([H])([H])N(S(=O)(=O)c3c([H])c([H])c(Cl)c(Cl)c3[H])C([H])([H])[C@@]2([H])N([H])C(=O)OC(C([H])([H])[H])(C([H])([H])[H])C([H])([H])[H])c([H])c(Cl)c1Cl
     RDKit          3D

 54 56  0  0  0  0  0  0  0  0999 V2000
   -5.4852   -1.7602    0.4282 C   0  0  0  0  0  0  0  0  0  0  0  0
   -4.1105   -2.2816    0.0820 C   0  0  0  0  0  0  0  0  0  0  0  0
   -4.2298   -2.9680   -1.2735 C   0  0  0  0  0  0  0  0  0  0  0  0
   -3.6998   -3.2859    1.1039 C   0  0  0  0  0  0  0  0  0  0  0  0
   -3.2248   -1.1848   -0.0104 O   0  0  0  0  0  0  0  0  0  0  0  0
   -1.8846   -1.2576   -0.3085 C   0  0  0  0  0  0  0  0  0  0  0  0
   -1.3956   -2.3998   -0.5192 O   0  0  0  0  0  0  0  0  0  0  0  0
   -1.0223   -0.1509   -0.3948 N   0  0  0  0  0  0  0  0  0  0  0  0
    0.3743   -0.2347   -0.7079 C   0  0  2  0  0  0  0  0  0  0  0  0
    1.2538    0.2087    0.4202 C   0  0  0  0  0  0  0  0  0  0  0  0
    2.5299    0.4296   -0.2307 N   0  0  0  0  0  0  0  0  0  0  0  0
    2.2554    0.9035   -1.5475 C   0  0  0  0  0  0  0  0  0  0  0  0
    0.8314    0.5117   -1.8785 C   0  0  2  0  0  0  0  0  0  0  0  0
    0.1211    1.6874   -2.3058 C   0  0  0  0  0  0  0  0  0  0  0  0
   -0.3952    1.7139   -3.5857 C   0  0  0  0  0  0  0  0  0  0  0  0
   -1.0942    2.8242   -4.0625 C   0  0  0  0  0  0  0  0  0  0  0  0
   -1.2849    3.9139   -3.2738 C   0  0  0  0  0  0  0  0  0  0  0  0
   -2.1624    5.3441   -3.8296 Cl  0  0  0  0  0  0  0  0  0  0  0  0
   -0.7846    3.9208   -1.9965 C   0  0  0  0  0  0  0  0  0  0  0  0
   -1.0034    5.3020   -0.9407 Cl  0  0  0  0  0  0  0  0  0  0  0  0
   -0.1042    2.8226   -1.5525 C   0  0  0  0  0  0  0  0  0  0  0  0
    3.6323    1.3524    0.6750 S   0  0  0  0  0  0  0  0  0  0  0  0
    4.8784    1.5696   -0.1219 O   0  0  0  0  0  0  0  0  0  0  0  0
    3.1102    2.7115    1.0504 O   0  0  0  0  0  0  0  0  0  0  0  0
    3.9879    0.5028    2.1615 C   0  0  0  0  0  0  0  0  0  0  0  0
    3.1989    0.7659    3.2592 C   0  0  0  0  0  0  0  0  0  0  0  0
    3.4540    0.1081    4.4563 C   0  0  0  0  0  0  0  0  0  0  0  0
    4.4874   -0.7841    4.5029 C   0  0  0  0  0  0  0  0  0  0  0  0
    4.8406   -1.6393    6.0139 Cl  0  0  0  0  0  0  0  0  0  0  0  0
    5.2687   -1.0399    3.4030 C   0  0  0  0  0  0  0  0  0  0  0  0
    6.6040   -2.1860    3.4441 Cl  0  0  0  0  0  0  0  0  0  0  0  0
    5.0333   -0.3992    2.2066 C   0  0  0  0  0  0  0  0  0  0  0  0
   -6.0933   -1.5484   -0.4768 H   0  0  0  0  0  0  0  0  0  0  0  0
   -5.3673   -0.8419    1.0607 H   0  0  0  0  0  0  0  0  0  0  0  0
   -5.9766   -2.5181    1.0709 H   0  0  0  0  0  0  0  0  0  0  0  0
   -3.7067   -2.3365   -2.0263 H   0  0  0  0  0  0  0  0  0  0  0  0
   -3.7103   -3.9454   -1.2755 H   0  0  0  0  0  0  0  0  0  0  0  0
   -5.2975   -3.1307   -1.5568 H   0  0  0  0  0  0  0  0  0  0  0  0
   -3.1953   -2.8692    1.9842 H   0  0  0  0  0  0  0  0  0  0  0  0
   -4.6454   -3.7658    1.4964 H   0  0  0  0  0  0  0  0  0  0  0  0
   -3.1195   -4.1434    0.6548 H   0  0  0  0  0  0  0  0  0  0  0  0
   -1.4260    0.7950   -0.2184 H   0  0  0  0  0  0  0  0  0  0  0  0
    0.5946   -1.3175   -0.8604 H   0  0  0  0  0  0  0  0  0  0  0  0
    1.4170   -0.5945    1.1799 H   0  0  0  0  0  0  0  0  0  0  0  0
    0.9346    1.0959    0.9492 H   0  0  0  0  0  0  0  0  0  0  0  0
    3.0025    0.4788   -2.2605 H   0  0  0  0  0  0  0  0  0  0  0  0
    2.4033    2.0126   -1.6158 H   0  0  0  0  0  0  0  0  0  0  0  0
    0.9148   -0.2047   -2.7481 H   0  0  0  0  0  0  0  0  0  0  0  0
   -0.2985    0.8980   -4.2908 H   0  0  0  0  0  0  0  0  0  0  0  0
   -1.5043    2.8518   -5.0703 H   0  0  0  0  0  0  0  0  0  0  0  0
    0.2813    2.8380   -0.5554 H   0  0  0  0  0  0  0  0  0  0  0  0
    2.3754    1.4659    3.2532 H   0  0  0  0  0  0  0  0  0  0  0  0
    2.8339    0.3113    5.3262 H   0  0  0  0  0  0  0  0  0  0  0  0
    5.6032   -0.5521    1.3122 H   0  0  0  0  0  0  0  0  0  0  0  0
  1  2  1  0
  2  3  1  0
  2  4  1  0
  2  5  1  0
  5  6  1  0
  6  7  2  0
  6  8  1  0
  8  9  1  0
  9 10  1  0
 10 11  1  0
 11 12  1  0
 12 13  1  0
 13 14  1  0
 14 15  2  0
 15 16  1  0
 16 17  2  0
 17 18  1  0
 17 19  1  0
 19 20  1  0
 19 21  2  0
 11 22  1  0
 22 23  2  0
 22 24  2  0
 22 25  1  0
 25 26  2  0
 26 27  1  0
 27 28  2  0
 28 29  1  0
 28 30  1  0
 30 31  1  0
 30 32  2  0
 13  9  1  0
 21 14  1  0
 32 25  1  0
  1 33  1  0
  1 34  1  0
  1 35  1  0
  3 36  1  0
  3 37  1  0
  3 38  1  0
  4 39  1  0
  4 40  1  0
  4 41  1  0
  8 42  1  0
  9 43  1  6
 10 44  1  0
 10 45  1  0
 12 46  1  0
 12 47  1  0
 13 48  1  6
 15 49  1  0
 16 50  1  0
 21 51  1  0
 26 52  1  0
 27 53  1  0
 32 54  1  0
M  END
$$$$
[H]O[C@]1([H])C([H])([H])C([H])([H])[C@@]2([H])[C@]3([H])C([H])([H])C([H])([H])C4=C([H])C(=O)C([H])([H])C([H])([H])[C@]4(C([H])([H])[H])[C@@]3([H])C([H])([H])C([H])([H])[C@]2(C([H])([H])[H])C1([H])[H]
     RDKit          3D

 52 55  0  0  0  0  0  0  0  0999 V2000
    1.8888    1.5615    1.0961 C   0  0  0  0  0  0  0  0  0  0  0  0
    2.0377    0.8011   -0.2151 C   0  0  2  0  0  0  0  0  0  0  0  0
    1.2329    1.5405   -1.2461 C   0  0  0  0  0  0  0  0  0  0  0  0
   -0.1821    1.6761   -0.6895 C   0  0  0  0  0  0  0  0  0  0  0  0
   -0.7590    0.2955   -0.6428 C   0  0  1  0  0  0  0  0  0  0  0  0
    0.0460   -0.6804    0.1525 C   0  0  1  0  0  0  0  0  0  0  0  0
   -0.4792   -2.0611   -0.1105 C   0  0  0  0  0  0  0  0  0  0  0  0
   -1.7306   -2.1112   -0.9110 C   0  0  0  0  0  0  0  0  0  0  0  0
   -2.7126   -1.0700   -0.6031 C   0  0  0  0  0  0  0  0  0  0  0  0
   -3.9881   -1.3003   -0.7441 C   0  0  0  0  0  0  0  0  0  0  0  0
   -4.9014   -0.1997   -0.4126 C   0  0  0  0  0  0  0  0  0  0  0  0
   -6.0808   -0.4172   -0.0082 O   0  0  0  0  0  0  0  0  0  0  0  0
   -4.4657    1.1895   -0.5431 C   0  0  0  0  0  0  0  0  0  0  0  0
   -3.0033    1.4033   -0.5863 C   0  0  0  0  0  0  0  0  0  0  0  0
   -2.1745    0.2537   -0.1246 C   0  0  2  0  0  0  0  0  0  0  0  0
   -2.2360    0.1974    1.3880 C   0  0  0  0  0  0  0  0  0  0  0  0
    1.5285   -0.6008   -0.1132 C   0  0  2  0  0  0  0  0  0  0  0  0
    2.2513   -1.1750    1.1136 C   0  0  0  0  0  0  0  0  0  0  0  0
    3.7117   -1.2789    0.8589 C   0  0  0  0  0  0  0  0  0  0  0  0
    4.2750   -0.3643   -0.1489 C   0  0  1  0  0  0  0  0  0  0  0  0
    4.6437   -1.1287   -1.2839 O   0  0  0  0  0  0  0  0  0  0  0  0
    3.4813    0.7856   -0.5907 C   0  0  0  0  0  0  0  0  0  0  0  0
    2.7968    1.4334    1.7343 H   0  0  0  0  0  0  0  0  0  0  0  0
    1.8431    2.6369    0.8432 H   0  0  0  0  0  0  0  0  0  0  0  0
    0.9800    1.2247    1.6111 H   0  0  0  0  0  0  0  0  0  0  0  0
    1.1398    0.9272   -2.1629 H   0  0  0  0  0  0  0  0  0  0  0  0
    1.6841    2.5190   -1.4735 H   0  0  0  0  0  0  0  0  0  0  0  0
   -0.2096    2.2083    0.2672 H   0  0  0  0  0  0  0  0  0  0  0  0
   -0.7474    2.2522   -1.4589 H   0  0  0  0  0  0  0  0  0  0  0  0
   -0.7944   -0.0823   -1.6949 H   0  0  0  0  0  0  0  0  0  0  0  0
   -0.0694   -0.5052    1.2633 H   0  0  0  0  0  0  0  0  0  0  0  0
   -0.5631   -2.6625    0.8358 H   0  0  0  0  0  0  0  0  0  0  0  0
    0.3135   -2.6073   -0.7021 H   0  0  0  0  0  0  0  0  0  0  0  0
   -2.2257   -3.1020   -0.6996 H   0  0  0  0  0  0  0  0  0  0  0  0
   -1.5339   -2.1329   -2.0174 H   0  0  0  0  0  0  0  0  0  0  0  0
   -4.4130   -2.2369   -1.0847 H   0  0  0  0  0  0  0  0  0  0  0  0
   -4.9458    1.7730    0.2970 H   0  0  0  0  0  0  0  0  0  0  0  0
   -4.9675    1.6044   -1.4667 H   0  0  0  0  0  0  0  0  0  0  0  0
   -2.7228    1.7519   -1.6175 H   0  0  0  0  0  0  0  0  0  0  0  0
   -2.7594    2.2758    0.0747 H   0  0  0  0  0  0  0  0  0  0  0  0
   -2.0865   -0.8517    1.7549 H   0  0  0  0  0  0  0  0  0  0  0  0
   -1.5477    0.9140    1.8668 H   0  0  0  0  0  0  0  0  0  0  0  0
   -3.3002    0.4401    1.6577 H   0  0  0  0  0  0  0  0  0  0  0  0
    1.8451   -1.1538   -1.0128 H   0  0  0  0  0  0  0  0  0  0  0  0
    2.0830   -0.4706    1.9540 H   0  0  0  0  0  0  0  0  0  0  0  0
    1.8167   -2.1568    1.3945 H   0  0  0  0  0  0  0  0  0  0  0  0
    3.9172   -2.3606    0.5987 H   0  0  0  0  0  0  0  0  0  0  0  0
    4.2275   -1.1560    1.8584 H   0  0  0  0  0  0  0  0  0  0  0  0
    5.2680    0.0160    0.2380 H   0  0  0  0  0  0  0  0  0  0  0  0
    5.1550   -0.4821   -1.8609 H   0  0  0  0  0  0  0  0  0  0  0  0
    3.5200    0.9065   -1.7148 H   0  0  0  0  0  0  0  0  0  0  0  0
    3.9132    1.7608   -0.2137 H   0  0  0  0  0  0  0  0  0  0  0  0
  2  1  1  1
  2  3  1  0
  3  4  1  0
  4  5  1  0
  5  6  1  0
  6  7  1  0
  7  8  1  0
  8  9  1  0
  9 10  2  0
 10 11  1  0
 11 12  2  0
 11 13  1  0
 13 14  1  0
 14 15  1  0
 15 16  1  1
  6 17  1  0
 17 18  1  0
 18 19  1  0
 19 20  1  0
 20 21  1  0
 20 22  1  0
 17  2  1  0
 22  2  1  0
 15  5  1  0
 15  9  1  0
  1 23  1  0
  1 24  1  0
  1 25  1  0
  3 26  1  0
  3 27  1  0
  4 28  1  0
  4 29  1  0
  5 30  1  6
  6 31  1  1
  7 32  1  0
  7 33  1  0
  8 34  1  0
  8 35  1  0
 10 36  1  0
 13 37  1  0
 13 38  1  0
 14 39  1  0
 14 40  1  0
 16 41  1  0
 16 42  1  0
 16 43  1  0
 17 44  1  6
 18 45  1  0
 18 46  1  0
 19 47  1  0
 19 48  1  0
 20 49  1  1
 21 50  1  0
 22 51  1  0
 22 52  1  0
M  END
$$$$
[H]c1c([H])c(C(F)(F)F)c([H])c([H])c1N1C([H])([H])C([H])([H])N(c2nc3c([H])c(C#N)c([H])c([H])c3n2[H])C([H])([H])[C@@]1([H])C([H])([H])[H]
     RDKit          3D

 46 49  0  0  0  0  0  0  0  0999 V2000
    1.6785   -2.2108   -0.2030 C   0  0  0  0  0  0  0  0  0  0  0  0
    0.9628   -0.9640    0.3481 C   0  0  2  0  0  0  0  0  0  0  0  0
   -0.4906   -1.0909   -0.0599 C   0  0  0  0  0  0  0  0  0  0  0  0
   -1.1122    0.2164   -0.0292 N   0  0  0  0  0  0  0  0  0  0  0  0
   -0.3795    1.4493   -0.0659 C   0  0  0  0  0  0  0  0  0  0  0  0
    0.8580    1.1695   -0.9150 C   0  0  0  0  0  0  0  0  0  0  0  0
    1.6388    0.1769   -0.2075 N   0  0  0  0  0  0  0  0  0  0  0  0
    3.0463    0.3145   -0.0238 C   0  0  0  0  0  0  0  0  0  0  0  0
    3.9186    0.2819   -1.0807 C   0  0  0  0  0  0  0  0  0  0  0  0
    5.2926    0.4236   -0.9334 C   0  0  0  0  0  0  0  0  0  0  0  0
    5.8575    0.5927    0.2936 C   0  0  0  0  0  0  0  0  0  0  0  0
    5.0096    0.6382    1.4029 C   0  0  0  0  0  0  0  0  0  0  0  0
    3.6129    0.5074    1.2755 C   0  0  0  0  0  0  0  0  0  0  0  0
    7.3209    0.7410    0.4487 C   0  0  0  0  0  0  0  0  0  0  0  0
    7.8263   -0.3819    1.0818 F   0  0  0  0  0  0  0  0  0  0  0  0
    7.8724    0.9601   -0.7882 F   0  0  0  0  0  0  0  0  0  0  0  0
    7.5733    1.8380    1.2159 F   0  0  0  0  0  0  0  0  0  0  0  0
   -2.5446    0.2162    0.0378 C   0  0  0  0  0  0  0  0  0  0  0  0
   -3.3244    0.3269    1.1494 N   0  0  0  0  0  0  0  0  0  0  0  0
   -4.6180    0.1927    0.7616 C   0  0  0  0  0  0  0  0  0  0  0  0
   -5.8750    0.1955    1.3257 C   0  0  0  0  0  0  0  0  0  0  0  0
   -7.0489    0.0398    0.6521 C   0  0  0  0  0  0  0  0  0  0  0  0
   -6.9938   -0.1474   -0.7154 C   0  0  0  0  0  0  0  0  0  0  0  0
   -5.7564   -0.1672   -1.3609 C   0  0  0  0  0  0  0  0  0  0  0  0
   -4.5951    0.0024   -0.6183 C   0  0  0  0  0  0  0  0  0  0  0  0
   -3.3132    0.0264   -1.0298 N   0  0  0  0  0  0  0  0  0  0  0  0
   -8.3329    0.0727    1.2858 C   0  0  0  0  0  0  0  0  0  0  0  0
   -9.3764    0.0950    1.7968 N   0  0  0  0  0  0  0  0  0  0  0  0
    2.6600   -2.2950    0.2528 H   0  0  0  0  0  0  0  0  0  0  0  0
    1.6924   -2.0956   -1.2658 H   0  0  0  0  0  0  0  0  0  0  0  0
    1.0038   -3.0575    0.1370 H   0  0  0  0  0  0  0  0  0  0  0  0
    1.0156   -0.9582    1.4586 H   0  0  0  0  0  0  0  0  0  0  0  0
   -0.5151   -1.4883   -1.0907 H   0  0  0  0  0  0  0  0  0  0  0  0
   -0.9473   -1.8165    0.6226 H   0  0  0  0  0  0  0  0  0  0  0  0
   -0.0431    1.7594    0.9633 H   0  0  0  0  0  0  0  0  0  0  0  0
   -0.9596    2.2694   -0.5197 H   0  0  0  0  0  0  0  0  0  0  0  0
    0.5055    0.6983   -1.8558 H   0  0  0  0  0  0  0  0  0  0  0  0
    1.4392    2.0991   -1.0668 H   0  0  0  0  0  0  0  0  0  0  0  0
    3.5131    0.1391   -2.0654 H   0  0  0  0  0  0  0  0  0  0  0  0
    5.9725    0.4019   -1.7845 H   0  0  0  0  0  0  0  0  0  0  0  0
    5.4502    0.8015    2.3663 H   0  0  0  0  0  0  0  0  0  0  0  0
    3.0054    0.5557    2.1339 H   0  0  0  0  0  0  0  0  0  0  0  0
   -5.9246    0.3518    2.4337 H   0  0  0  0  0  0  0  0  0  0  0  0
   -7.8784   -0.3040   -1.2907 H   0  0  0  0  0  0  0  0  0  0  0  0
   -5.7235   -0.3007   -2.4344 H   0  0  0  0  0  0  0  0  0  0  0  0
   -2.9732   -0.1066   -2.0387 H   0  0  0  0  0  0  0  0  0  0  0  0
  1  2  1  0
  2  3  1  0
  3  4  1  0
  4  5  1  0
  5  6  1  0
  6  7  1  0
  7  8  1  0
  8  9  2  0
  9 10  1  0
 10 11  2  0
 11 12  1  0
 12 13  2  0
 11 14  1  0
 14 15  1  0
 14 16  1  0
 14 17  1  0
  4 18  1  0
 18 19  2  0
 19 20  1  0
 20 21  2  0
 21 22  1  0
 22 23  2  0
 23 24  1  0
 24 25  2  0
 25 26  1  0
 22 27  1  0
 27 28  3  0
  7  2  1  0
 13  8  1  0
 26 18  1  0
 25 20  1  0
  1 29  1  0
  1 30  1  0
  1 31  1  0
  2 32  1  1
  3 33  1  0
  3 34  1  0
  5 35  1  0
  5 36  1  0
  6 37  1  0
  6 38  1  0
  9 39  1  0
 10 40  1  0
 12 41  1  0
 13 42  1  0
 21 43  1  0
 23 44  1  0
 24 45  1  0
 26 46  1  0
M  END
$$$$
[H]c1c([H])c([H])c(C([H])([H])C(=O)N([H])[C@]([H])(C(=O)N([H])[C@]([H])(C(=O)N([H])[C@]([H])(C(=O)N([H])[C@]([H])(C(=O)N([H])[C@]([H])(C(=O)N([H])[H])C([H])([H])c2c([H])c([H])c([H])c([H])c2[H])C([H])([H])C([H])(C([H])([H])[H])C([H])([H])[H])C([H])([H])c2c([H])c([H])c([H])c([H])c2[H])C([H])([H])c2c([H])c([H])c([H])c([H])c2[H])C([H])([H])C([H])(C([H])([H])[H])C([H])([H])[H])c([H])c1[H]
     RDKit          3D

117120  0  0  0  0  0  0  0  0999 V2000
    5.5915   -3.9385   -2.8357 C   0  0  0  0  0  0  0  0  0  0  0  0
    4.4595   -3.0095   -3.0959 C   0  0  0  0  0  0  0  0  0  0  0  0
    3.4015   -3.7426   -3.9389 C   0  0  0  0  0  0  0  0  0  0  0  0
    3.8606   -2.3851   -1.8975 C   0  0  0  0  0  0  0  0  0  0  0  0
    4.7445   -1.5389   -1.1029 C   0  0  2  0  0  0  0  0  0  0  0  0
    5.8695   -2.2259   -0.5346 N   0  0  0  0  0  0  0  0  0  0  0  0
    7.1834   -1.6333   -0.4842 C   0  0  0  0  0  0  0  0  0  0  0  0
    7.3488   -0.5034   -0.9403 O   0  0  0  0  0  0  0  0  0  0  0  0
    8.2772   -2.4141    0.1157 C   0  0  0  0  0  0  0  0  0  0  0  0
    9.5452   -1.6873    0.1041 C   0  0  0  0  0  0  0  0  0  0  0  0
   10.0014   -0.9456    1.1712 C   0  0  0  0  0  0  0  0  0  0  0  0
   11.1963   -0.2922    1.0465 C   0  0  0  0  0  0  0  0  0  0  0  0
   11.9505   -0.3447   -0.0838 C   0  0  0  0  0  0  0  0  0  0  0  0
   11.5129   -1.0825   -1.1671 C   0  0  0  0  0  0  0  0  0  0  0  0
   10.3194   -1.7443   -1.0677 C   0  0  0  0  0  0  0  0  0  0  0  0
    4.0205   -0.7498   -0.0397 C   0  0  0  0  0  0  0  0  0  0  0  0
    4.5197   -0.7332    1.0966 O   0  0  0  0  0  0  0  0  0  0  0  0
    2.8268   -0.0534   -0.3082 N   0  0  0  0  0  0  0  0  0  0  0  0
    2.1015    0.7329    0.6590 C   0  0  1  0  0  0  0  0  0  0  0  0
    1.8544    2.1257    0.2458 C   0  0  0  0  0  0  0  0  0  0  0  0
    1.0767    2.3705   -0.9622 C   0  0  0  0  0  0  0  0  0  0  0  0
   -0.2840    2.5911   -0.8171 C   0  0  0  0  0  0  0  0  0  0  0  0
   -1.1055    2.8274   -1.9211 C   0  0  0  0  0  0  0  0  0  0  0  0
   -0.5552    2.8425   -3.1831 C   0  0  0  0  0  0  0  0  0  0  0  0
    0.7793    2.6257   -3.3206 C   0  0  0  0  0  0  0  0  0  0  0  0
    1.5727    2.3958   -2.2297 C   0  0  0  0  0  0  0  0  0  0  0  0
    0.9766    0.0187    1.3103 C   0  0  0  0  0  0  0  0  0  0  0  0
    0.8298   -1.2027    1.0545 O   0  0  0  0  0  0  0  0  0  0  0  0
    0.0696    0.6122    2.1888 N   0  0  0  0  0  0  0  0  0  0  0  0
   -0.9946   -0.1012    2.8130 C   0  0  1  0  0  0  0  0  0  0  0  0
   -1.3558    0.3210    4.1936 C   0  0  0  0  0  0  0  0  0  0  0  0
   -0.1935    0.1648    5.1425 C   0  0  0  0  0  0  0  0  0  0  0  0
    0.0207   -1.0176    5.8038 C   0  0  0  0  0  0  0  0  0  0  0  0
    1.1013   -1.1775    6.6908 C   0  0  0  0  0  0  0  0  0  0  0  0
    1.9686   -0.1290    6.9096 C   0  0  0  0  0  0  0  0  0  0  0  0
    1.7542    1.0580    6.2474 C   0  0  0  0  0  0  0  0  0  0  0  0
    0.6782    1.2032    5.3682 C   0  0  0  0  0  0  0  0  0  0  0  0
   -2.2410   -0.2068    1.9988 C   0  0  0  0  0  0  0  0  0  0  0  0
   -2.0903   -0.5110    0.7837 O   0  0  0  0  0  0  0  0  0  0  0  0
   -3.5353    0.0038    2.4749 N   0  0  0  0  0  0  0  0  0  0  0  0
   -4.7436   -0.1549    1.5978 C   0  0  1  0  0  0  0  0  0  0  0  0
   -5.8564   -0.3047    2.5179 C   0  0  0  0  0  0  0  0  0  0  0  0
   -7.2508   -0.4984    2.1146 C   0  0  0  0  0  0  0  0  0  0  0  0
   -7.5537   -1.6916    1.2437 C   0  0  0  0  0  0  0  0  0  0  0  0
   -8.0556    0.6908    1.7186 C   0  0  0  0  0  0  0  0  0  0  0  0
   -4.6658    0.9912    0.6692 C   0  0  0  0  0  0  0  0  0  0  0  0
   -3.7890    1.8775    0.8698 O   0  0  0  0  0  0  0  0  0  0  0  0
   -5.4902    1.1862   -0.4637 N   0  0  0  0  0  0  0  0  0  0  0  0
   -5.3313    2.2919   -1.3637 C   0  0  1  0  0  0  0  0  0  0  0  0
   -4.9335    1.8106   -2.7520 C   0  0  0  0  0  0  0  0  0  0  0  0
   -5.9419    0.8743   -3.3429 C   0  0  0  0  0  0  0  0  0  0  0  0
   -6.9779    1.3376   -4.1016 C   0  0  0  0  0  0  0  0  0  0  0  0
   -7.9015    0.4490   -4.6319 C   0  0  0  0  0  0  0  0  0  0  0  0
   -7.8028   -0.9115   -4.4118 C   0  0  0  0  0  0  0  0  0  0  0  0
   -6.7438   -1.3355   -3.6415 C   0  0  0  0  0  0  0  0  0  0  0  0
   -5.8171   -0.4727   -3.1066 C   0  0  0  0  0  0  0  0  0  0  0  0
   -6.3763    3.3170   -1.3704 C   0  0  0  0  0  0  0  0  0  0  0  0
   -6.2953    4.4446   -2.2586 N   0  0  0  0  0  0  0  0  0  0  0  0
   -7.3864    3.2952   -0.6303 O   0  0  0  0  0  0  0  0  0  0  0  0
    5.6762   -4.6192   -3.7657 H   0  0  0  0  0  0  0  0  0  0  0  0
    6.5485   -3.4005   -2.7830 H   0  0  0  0  0  0  0  0  0  0  0  0
    5.3934   -4.5907   -1.9700 H   0  0  0  0  0  0  0  0  0  0  0  0
    4.8024   -2.1814   -3.8106 H   0  0  0  0  0  0  0  0  0  0  0  0
    3.8717   -3.9615   -4.9383 H   0  0  0  0  0  0  0  0  0  0  0  0
    3.0500   -4.6545   -3.4492 H   0  0  0  0  0  0  0  0  0  0  0  0
    2.5586   -3.0626   -4.1587 H   0  0  0  0  0  0  0  0  0  0  0  0
    3.0045   -1.7157   -2.2695 H   0  0  0  0  0  0  0  0  0  0  0  0
    3.3094   -3.1589   -1.2581 H   0  0  0  0  0  0  0  0  0  0  0  0
    5.1456   -0.6948   -1.7651 H   0  0  0  0  0  0  0  0  0  0  0  0
    5.7719   -3.1844   -0.1315 H   0  0  0  0  0  0  0  0  0  0  0  0
    8.4328   -3.3776   -0.4227 H   0  0  0  0  0  0  0  0  0  0  0  0
    8.0451   -2.7230    1.1729 H   0  0  0  0  0  0  0  0  0  0  0  0
    9.4116   -0.8939    2.0795 H   0  0  0  0  0  0  0  0  0  0  0  0
   11.5445    0.2940    1.9084 H   0  0  0  0  0  0  0  0  0  0  0  0
   12.9126    0.1906   -0.1693 H   0  0  0  0  0  0  0  0  0  0  0  0
   12.1271   -1.1142   -2.0686 H   0  0  0  0  0  0  0  0  0  0  0  0
    9.9732   -2.3208   -1.9150 H   0  0  0  0  0  0  0  0  0  0  0  0
    2.4169   -0.0963   -1.2827 H   0  0  0  0  0  0  0  0  0  0  0  0
    2.8479    0.8171    1.5255 H   0  0  0  0  0  0  0  0  0  0  0  0
    1.3665    2.6487    1.1080 H   0  0  0  0  0  0  0  0  0  0  0  0
    2.8406    2.6524    0.1490 H   0  0  0  0  0  0  0  0  0  0  0  0
   -0.7976    2.6067    0.1321 H   0  0  0  0  0  0  0  0  0  0  0  0
   -2.1658    3.0049   -1.8344 H   0  0  0  0  0  0  0  0  0  0  0  0
   -1.1826    3.0258   -4.0689 H   0  0  0  0  0  0  0  0  0  0  0  0
    1.1828    2.6475   -4.3326 H   0  0  0  0  0  0  0  0  0  0  0  0
    2.6162    2.2338   -2.3948 H   0  0  0  0  0  0  0  0  0  0  0  0
    0.1747    1.6258    2.4000 H   0  0  0  0  0  0  0  0  0  0  0  0
   -0.7106   -1.2233    2.8948 H   0  0  0  0  0  0  0  0  0  0  0  0
   -1.6501    1.3724    4.2067 H   0  0  0  0  0  0  0  0  0  0  0  0
   -2.1643   -0.2885    4.6336 H   0  0  0  0  0  0  0  0  0  0  0  0
   -0.6525   -1.8606    5.6489 H   0  0  0  0  0  0  0  0  0  0  0  0
    1.2851   -2.0995    7.2144 H   0  0  0  0  0  0  0  0  0  0  0  0
    2.8189   -0.2139    7.5911 H   0  0  0  0  0  0  0  0  0  0  0  0
    2.4569    1.8670    6.4414 H   0  0  0  0  0  0  0  0  0  0  0  0
    0.5299    2.1329    4.8648 H   0  0  0  0  0  0  0  0  0  0  0  0
   -3.6755    0.2866    3.4625 H   0  0  0  0  0  0  0  0  0  0  0  0
   -4.4451   -1.0757    1.0052 H   0  0  0  0  0  0  0  0  0  0  0  0
   -5.8628    0.6536    3.1676 H   0  0  0  0  0  0  0  0  0  0  0  0
   -5.5309   -1.0615    3.3115 H   0  0  0  0  0  0  0  0  0  0  0  0
   -7.7664   -0.8154    3.1355 H   0  0  0  0  0  0  0  0  0  0  0  0
   -7.4183   -1.4113    0.1750 H   0  0  0  0  0  0  0  0  0  0  0  0
   -8.6275   -1.9575    1.3611 H   0  0  0  0  0  0  0  0  0  0  0  0
   -6.9787   -2.5892    1.5218 H   0  0  0  0  0  0  0  0  0  0  0  0
   -8.2688    0.5866    0.6122 H   0  0  0  0  0  0  0  0  0  0  0  0
   -9.0003    0.7258    2.2913 H   0  0  0  0  0  0  0  0  0  0  0  0
   -7.4934    1.6448    1.8825 H   0  0  0  0  0  0  0  0  0  0  0  0
   -6.2391    0.4882   -0.6680 H   0  0  0  0  0  0  0  0  0  0  0  0
   -4.3975    2.8347   -0.9948 H   0  0  0  0  0  0  0  0  0  0  0  0
   -3.9614    1.2562   -2.6312 H   0  0  0  0  0  0  0  0  0  0  0  0
   -4.7076    2.6364   -3.4432 H   0  0  0  0  0  0  0  0  0  0  0  0
   -7.1173    2.3796   -4.3111 H   0  0  0  0  0  0  0  0  0  0  0  0
   -8.7405    0.7735   -5.2424 H   0  0  0  0  0  0  0  0  0  0  0  0
   -8.5133   -1.6318   -4.8131 H   0  0  0  0  0  0  0  0  0  0  0  0
   -6.6887   -2.4251   -3.4852 H   0  0  0  0  0  0  0  0  0  0  0  0
   -4.9964   -0.8877   -2.5066 H   0  0  0  0  0  0  0  0  0  0  0  0
   -5.6585    4.3775   -3.0672 H   0  0  0  0  0  0  0  0  0  0  0  0
   -6.8489    5.2873   -2.0908 H   0  0  0  0  0  0  0  0  0  0  0  0
  1  2  1  0
  2  3  1  0
  2  4  1  0
  4  5  1  0
  5  6  1  0
  6  7  1  0
  7  8  2  0
  7  9  1  0
  9 10  1  0
 10 11  2  0
 11 12  1  0
 12 13  2  0
 13 14  1  0
 14 15  2  0
  5 16  1  0
 16 17  2  0
 16 18  1  0
 18 19  1  0
 19 20  1  0
 20 21  1  0
 21 22  2  0
 22 23  1  0
 23 24  2  0
 24 25  1  0
 25 26  2  0
 19 27  1  0
 27 28  2  0
 27 29  1  0
 29 30  1  0
 30 31  1  0
 31 32  1  0
 32 33  2  0
 33 34  1  0
 34 35  2  0
 35 36  1  0
 36 37  2  0
 30 38  1  0
 38 39  2  0
 38 40  1  0
 40 41  1  0
 41 42  1  0
 42 43  1  0
 43 44  1  0
 43 45  1  0
 41 46  1  0
 46 47  2  0
 46 48  1  0
 48 49  1  0
 49 50  1  0
 50 51  1  0
 51 52  2  0
 52 53  1  0
 53 54  2  0
 54 55  1  0
 55 56  2  0
 49 57  1  0
 57 58  1  0
 57 59  2  0
 15 10  1  0
 26 21  1  0
 37 32  1  0
 56 51  1  0
  1 60  1  0
  1 61  1  0
  1 62  1  0
  2 63  1  0
  3 64  1  0
  3 65  1  0
  3 66  1  0
  4 67  1  0
  4 68  1  0
  5 69  1  6
  6 70  1  0
  9 71  1  0
  9 72  1  0
 11 73  1  0
 12 74  1  0
 13 75  1  0
 14 76  1  0
 15 77  1  0
 18 78  1  0
 19 79  1  1
 20 80  1  0
 20 81  1  0
 22 82  1  0
 23 83  1  0
 24 84  1  0
 25 85  1  0
 26 86  1  0
 29 87  1  0
 30 88  1  1
 31 89  1  0
 31 90  1  0
 33 91  1  0
 34 92  1  0
 35 93  1  0
 36 94  1  0
 37 95  1  0
 40 96  1  0
 41 97  1  6
 42 98  1  0
 42 99  1  0
 43100  1  0
 44101  1  0
 44102  1  0
 44103  1  0
 45104  1  0
 45105  1  0
 45106  1  0
 48107  1  0
 49108  1  1
 50109  1  0
 50110  1  0
 52111  1  0
 53112  1  0
 54113  1  0
 55114  1  0
 56115  1  0
 58116  1  0
 58117  1  0
M  END
$$$$
[H]N=C(N([H])[H])N([H])C([H])([H])C([H])([H])C([H])([H])[C@@]([H])(C(=O)N([H])[C@]([H])(C(=O)N([H])[C@]([H])(C(=O)N([H])[H])C([H])([H])c1c([H])c([H])c([H])c([H])c1[H])C([H])([H])c1c([H])c([H])c([H])c([H])c1[H])N([H])C(=O)[C@@]([H])(N([H])[H])C([H])([H])c1c(C([H])([H])[H])c([H])c(O[H])c([H])c1C([H])([H])[H]
     RDKit          3D

 94 96  0  0  0  0  0  0  0  0999 V2000
   -7.2447   -2.0111    1.5606 C   0  0  0  0  0  0  0  0  0  0  0  0
   -7.2489   -2.9395    0.3895 C   0  0  0  0  0  0  0  0  0  0  0  0
   -8.1616   -4.0088    0.3883 C   0  0  0  0  0  0  0  0  0  0  0  0
   -8.2428   -4.8723   -0.6734 C   0  0  0  0  0  0  0  0  0  0  0  0
   -9.1529   -5.9402   -0.6784 O   0  0  0  0  0  0  0  0  0  0  0  0
   -7.3949   -4.6449   -1.7310 C   0  0  0  0  0  0  0  0  0  0  0  0
   -6.5030   -3.5982   -1.7258 C   0  0  0  0  0  0  0  0  0  0  0  0
   -5.6197   -3.3982   -2.8942 C   0  0  0  0  0  0  0  0  0  0  0  0
   -6.3945   -2.6949   -0.6517 C   0  0  0  0  0  0  0  0  0  0  0  0
   -5.4130   -1.6392   -0.7446 C   0  0  0  0  0  0  0  0  0  0  0  0
   -4.0855   -1.8071   -0.0989 C   0  0  2  0  0  0  0  0  0  0  0  0
   -4.0753   -2.0062    1.3179 N   0  0  0  0  0  0  0  0  0  0  0  0
   -3.2140   -0.6063   -0.3792 C   0  0  0  0  0  0  0  0  0  0  0  0
   -3.1203   -0.1719   -1.5557 O   0  0  0  0  0  0  0  0  0  0  0  0
   -2.5050    0.0496    0.6231 N   0  0  0  0  0  0  0  0  0  0  0  0
   -1.6750    1.2443    0.3334 C   0  0  1  0  0  0  0  0  0  0  0  0
   -2.3358    2.3983    1.0693 C   0  0  0  0  0  0  0  0  0  0  0  0
   -1.7133    3.7272    0.8772 C   0  0  0  0  0  0  0  0  0  0  0  0
   -1.7765    4.2498   -0.5482 C   0  0  0  0  0  0  0  0  0  0  0  0
   -1.1502    5.5448   -0.6602 N   0  0  0  0  0  0  0  0  0  0  0  0
   -1.1512    6.1549   -1.9498 C   0  0  0  0  0  0  0  0  0  0  0  0
   -2.0933    7.1411   -2.3209 N   0  0  0  0  0  0  0  0  0  0  0  0
   -0.2606    5.7963   -2.8090 N   0  0  0  0  0  0  0  0  0  0  0  0
   -0.3075    1.0148    0.8865 C   0  0  0  0  0  0  0  0  0  0  0  0
   -0.1448    0.1123    1.7744 O   0  0  0  0  0  0  0  0  0  0  0  0
    0.7755    1.7670    0.4485 N   0  0  0  0  0  0  0  0  0  0  0  0
    2.1502    1.7409    0.8667 C   0  0  1  0  0  0  0  0  0  0  0  0
    2.1782    2.0163    2.3584 C   0  0  0  0  0  0  0  0  0  0  0  0
    3.5111    2.0514    2.9605 C   0  0  0  0  0  0  0  0  0  0  0  0
    4.2113    3.2492    3.0441 C   0  0  0  0  0  0  0  0  0  0  0  0
    5.4478    3.2153    3.6404 C   0  0  0  0  0  0  0  0  0  0  0  0
    6.0202    2.0569    4.1549 C   0  0  0  0  0  0  0  0  0  0  0  0
    5.3042    0.8828    4.0585 C   0  0  0  0  0  0  0  0  0  0  0  0
    4.0589    0.8913    3.4632 C   0  0  0  0  0  0  0  0  0  0  0  0
    2.7821    0.4633    0.4912 C   0  0  0  0  0  0  0  0  0  0  0  0
    2.2149   -0.6416    0.4280 O   0  0  0  0  0  0  0  0  0  0  0  0
    4.1912    0.5467    0.1748 N   0  0  0  0  0  0  0  0  0  0  0  0
    4.8817   -0.6862   -0.1866 C   0  0  1  0  0  0  0  0  0  0  0  0
    5.0457   -0.7298   -1.7007 C   0  0  0  0  0  0  0  0  0  0  0  0
    5.7511   -1.9312   -2.1248 C   0  0  0  0  0  0  0  0  0  0  0  0
    7.1181   -1.9015   -2.3785 C   0  0  0  0  0  0  0  0  0  0  0  0
    7.8025   -3.0270   -2.7684 C   0  0  0  0  0  0  0  0  0  0  0  0
    7.1492   -4.2272   -2.9198 C   0  0  0  0  0  0  0  0  0  0  0  0
    5.8071   -4.2616   -2.6719 C   0  0  0  0  0  0  0  0  0  0  0  0
    5.1111   -3.1417   -2.2818 C   0  0  0  0  0  0  0  0  0  0  0  0
    6.2005   -0.6642    0.4524 C   0  0  0  0  0  0  0  0  0  0  0  0
    6.9345   -1.8331    0.7163 N   0  0  0  0  0  0  0  0  0  0  0  0
    6.6920    0.4669    0.7844 O   0  0  0  0  0  0  0  0  0  0  0  0
   -8.3494   -1.9030    1.8271 H   0  0  0  0  0  0  0  0  0  0  0  0
   -6.9196   -1.0031    1.3329 H   0  0  0  0  0  0  0  0  0  0  0  0
   -6.8167   -2.5043    2.4354 H   0  0  0  0  0  0  0  0  0  0  0  0
   -8.8103   -4.1422    1.2525 H   0  0  0  0  0  0  0  0  0  0  0  0
  -10.0896   -5.7545   -1.0710 H   0  0  0  0  0  0  0  0  0  0  0  0
   -7.4669   -5.3368   -2.5738 H   0  0  0  0  0  0  0  0  0  0  0  0
   -5.7495   -4.2661   -3.6083 H   0  0  0  0  0  0  0  0  0  0  0  0
   -5.7607   -2.4360   -3.4140 H   0  0  0  0  0  0  0  0  0  0  0  0
   -4.5720   -3.5000   -2.5511 H   0  0  0  0  0  0  0  0  0  0  0  0
   -5.8332   -0.6609   -0.3355 H   0  0  0  0  0  0  0  0  0  0  0  0
   -5.1916   -1.3412   -1.8208 H   0  0  0  0  0  0  0  0  0  0  0  0
   -3.5891   -2.7055   -0.5455 H   0  0  0  0  0  0  0  0  0  0  0  0
   -4.2669   -1.1687    1.8927 H   0  0  0  0  0  0  0  0  0  0  0  0
   -3.3612   -2.6466    1.6857 H   0  0  0  0  0  0  0  0  0  0  0  0
   -2.5159   -0.2585    1.6051 H   0  0  0  0  0  0  0  0  0  0  0  0
   -1.6566    1.4180   -0.7100 H   0  0  0  0  0  0  0  0  0  0  0  0
   -2.2471    2.1174    2.1604 H   0  0  0  0  0  0  0  0  0  0  0  0
   -3.4099    2.4872    0.7846 H   0  0  0  0  0  0  0  0  0  0  0  0
   -2.2123    4.5095    1.5402 H   0  0  0  0  0  0  0  0  0  0  0  0
   -0.6430    3.7706    1.1975 H   0  0  0  0  0  0  0  0  0  0  0  0
   -1.3682    3.5203   -1.2636 H   0  0  0  0  0  0  0  0  0  0  0  0
   -2.8615    4.3719   -0.7825 H   0  0  0  0  0  0  0  0  0  0  0  0
   -0.7063    6.0349    0.1590 H   0  0  0  0  0  0  0  0  0  0  0  0
   -2.1754    8.0257   -1.7804 H   0  0  0  0  0  0  0  0  0  0  0  0
   -2.7121    6.9926   -3.1352 H   0  0  0  0  0  0  0  0  0  0  0  0
   -0.2174    6.2144   -3.7710 H   0  0  0  0  0  0  0  0  0  0  0  0
    0.5656    2.4572   -0.3493 H   0  0  0  0  0  0  0  0  0  0  0  0
    2.6923    2.5575    0.3196 H   0  0  0  0  0  0  0  0  0  0  0  0
    1.6122    2.9652    2.5899 H   0  0  0  0  0  0  0  0  0  0  0  0
    1.6184    1.2064    2.8599 H   0  0  0  0  0  0  0  0  0  0  0  0
    3.7541    4.1372    2.6413 H   0  0  0  0  0  0  0  0  0  0  0  0
    5.9971    4.1674    3.7042 H   0  0  0  0  0  0  0  0  0  0  0  0
    7.0015    2.1067    4.6118 H   0  0  0  0  0  0  0  0  0  0  0  0
    5.7283   -0.0309    4.4506 H   0  0  0  0  0  0  0  0  0  0  0  0
    3.5373   -0.0642    3.4127 H   0  0  0  0  0  0  0  0  0  0  0  0
    4.7203    1.4400    0.1958 H   0  0  0  0  0  0  0  0  0  0  0  0
    4.2816   -1.5432    0.1378 H   0  0  0  0  0  0  0  0  0  0  0  0
    5.6441    0.1591   -1.9956 H   0  0  0  0  0  0  0  0  0  0  0  0
    4.0397   -0.6873   -2.1774 H   0  0  0  0  0  0  0  0  0  0  0  0
    7.6583   -0.9679   -2.2669 H   0  0  0  0  0  0  0  0  0  0  0  0
    8.8792   -2.9985   -2.9654 H   0  0  0  0  0  0  0  0  0  0  0  0
    7.6976   -5.1254   -3.2299 H   0  0  0  0  0  0  0  0  0  0  0  0
    5.2623   -5.2099   -2.7862 H   0  0  0  0  0  0  0  0  0  0  0  0
    4.0464   -3.2540   -2.1042 H   0  0  0  0  0  0  0  0  0  0  0  0
    6.4309   -2.7175    0.9903 H   0  0  0  0  0  0  0  0  0  0  0  0
    7.9801   -1.8301    0.6422 H   0  0  0  0  0  0  0  0  0  0  0  0
  1  2  1  0
  2  3  2  0
  3  4  1  0
  4  5  1  0
  4  6  2  0
  6  7  1  0
  7  8  1  0
  7  9  2  0
  9 10  1  0
 10 11  1  0
 11 12  1  0
 11 13  1  0
 13 14  2  0
 13 15  1  0
 15 16  1  0
 16 17  1  0
 17 18  1  0
 18 19  1  0
 19 20  1  0
 20 21  1  0
 21 22  1  0
 21 23  2  3
 16 24  1  0
 24 25  2  0
 24 26  1  0
 26 27  1  0
 27 28  1  0
 28 29  1  0
 29 30  2  0
 30 31  1  0
 31 32  2  0
 32 33  1  0
 33 34  2  0
 27 35  1  0
 35 36  2  0
 35 37  1  0
 37 38  1  0
 38 39  1  0
 39 40  1  0
 40 41  2  0
 41 42  1  0
 42 43  2  0
 43 44  1  0
 44 45  2  0
 38 46  1  0
 46 47  1  0
 46 48  2  0
  9  2  1  0
 34 29  1  0
 45 40  1  0
  1 49  1  0
  1 50  1  0
  1 51  1  0
  3 52  1  0
  5 53  1  0
  6 54  1  0
  8 55  1  0
  8 56  1  0
  8 57  1  0
 10 58  1  0
 10 59  1  0
 11 60  1  6
 12 61  1  0
 12 62  1  0
 15 63  1  0
 16 64  1  6
 17 65  1  0
 17 66  1  0
 18 67  1  0
 18 68  1  0
 19 69  1  0
 19 70  1  0
 20 71  1  0
 22 72  1  0
 22 73  1  0
 23 74  1  0
 26 75  1  0
 27 76  1  6
 28 77  1  0
 28 78  1  0
 30 79  1  0
 31 80  1  0
 32 81  1  0
 33 82  1  0
 34 83  1  0
 37 84  1  0
 38 85  1  1
 39 86  1  0
 39 87  1  0
 41 88  1  0
 42 89  1  0
 43 90  1  0
 44 91  1  0
 45 92  1  0
 47 93  1  0
 47 94  1  0
M  END
$$$$
[H]N=C(N([H])[H])N([H])C([H])([H])C([H])([H])C([H])([H])[C@]1([H])C(=O)N([H])[C@@]([H])(C([H])([H])c2c([H])c([H])c([H])c([H])c2[H])C(=O)N2C([H])([H])C([H])([H])C([H])([H])[C@@]2([H])C(=O)N([H])[C@@]([H])(C([H])([H])c2c([H])c([H])c(O[H])c([H])c2[H])C(=O)N([H])[C@@]([H])(C([H])([H])c2c([H])c([H])c(O[H])c([H])c2[H])C(=O)N1[H]
     RDKit          3D

 99103  0  0  0  0  0  0  0  0999 V2000
   -7.5397   -3.7114    1.2966 N   0  0  0  0  0  0  0  0  0  0  0  0
   -6.1822   -3.4466    1.6297 C   0  0  0  0  0  0  0  0  0  0  0  0
   -5.7312   -3.9411    2.7358 N   0  0  0  0  0  0  0  0  0  0  0  0
   -5.3232   -2.6769    0.8149 N   0  0  0  0  0  0  0  0  0  0  0  0
   -5.3414   -1.2515    0.9154 C   0  0  0  0  0  0  0  0  0  0  0  0
   -4.3703   -0.5759   -0.0082 C   0  0  0  0  0  0  0  0  0  0  0  0
   -2.9363   -0.9416    0.2069 C   0  0  0  0  0  0  0  0  0  0  0  0
   -2.3915   -0.5617    1.5361 C   0  0  1  0  0  0  0  0  0  0  0  0
   -1.0125   -0.9336    1.7486 N   0  0  0  0  0  0  0  0  0  0  0  0
   -0.2832   -2.0601    1.4276 C   0  0  0  0  0  0  0  0  0  0  0  0
    0.1594   -2.7503    2.4348 O   0  0  0  0  0  0  0  0  0  0  0  0
    0.0938   -2.6296    0.0968 C   0  0  2  0  0  0  0  0  0  0  0  0
    0.8602   -3.8877    0.2884 C   0  0  0  0  0  0  0  0  0  0  0  0
    1.3165   -4.6298   -0.8587 C   0  0  0  0  0  0  0  0  0  0  0  0
    2.6092   -4.4894   -1.2991 C   0  0  0  0  0  0  0  0  0  0  0  0
    3.1447   -5.1502   -2.3873 C   0  0  0  0  0  0  0  0  0  0  0  0
    2.3056   -6.0054   -3.0622 C   0  0  0  0  0  0  0  0  0  0  0  0
    2.7852   -6.7007   -4.1652 O   0  0  0  0  0  0  0  0  0  0  0  0
    0.9978   -6.1790   -2.6551 C   0  0  0  0  0  0  0  0  0  0  0  0
    0.5067   -5.5075   -1.5760 C   0  0  0  0  0  0  0  0  0  0  0  0
    0.5955   -1.6609   -0.8157 N   0  0  0  0  0  0  0  0  0  0  0  0
    1.8394   -1.1672   -1.1370 C   0  0  0  0  0  0  0  0  0  0  0  0
    2.1063   -1.1242   -2.4115 O   0  0  0  0  0  0  0  0  0  0  0  0
    2.9678   -0.6630   -0.3501 C   0  0  2  0  0  0  0  0  0  0  0  0
    2.7766   -0.5709    1.1385 C   0  0  0  0  0  0  0  0  0  0  0  0
    4.0871   -0.0290    1.6624 C   0  0  0  0  0  0  0  0  0  0  0  0
    4.2530    1.3173    1.8146 C   0  0  0  0  0  0  0  0  0  0  0  0
    5.4480    1.8095    2.2856 C   0  0  0  0  0  0  0  0  0  0  0  0
    6.4892    0.9697    2.6103 C   0  0  0  0  0  0  0  0  0  0  0  0
    7.7017    1.4716    3.0882 O   0  0  0  0  0  0  0  0  0  0  0  0
    6.3371   -0.3853    2.4632 C   0  0  0  0  0  0  0  0  0  0  0  0
    5.1192   -0.8723    1.9836 C   0  0  0  0  0  0  0  0  0  0  0  0
    3.5734    0.5512   -0.8560 N   0  0  0  0  0  0  0  0  0  0  0  0
    2.9684    1.6351   -1.5044 C   0  0  0  0  0  0  0  0  0  0  0  0
    3.8094    2.4106   -2.1136 O   0  0  0  0  0  0  0  0  0  0  0  0
    1.5645    2.0311   -1.6078 C   0  0  2  0  0  0  0  0  0  0  0  0
    1.4285    2.7817   -2.9669 C   0  0  0  0  0  0  0  0  0  0  0  0
    1.9395    4.1769   -2.6122 C   0  0  0  0  0  0  0  0  0  0  0  0
    2.0109    4.2267   -1.0953 C   0  0  0  0  0  0  0  0  0  0  0  0
    1.1774    3.0977   -0.6610 N   0  0  0  0  0  0  0  0  0  0  0  0
    0.2006    2.9175    0.3478 C   0  0  0  0  0  0  0  0  0  0  0  0
    0.4322    3.4997    1.4629 O   0  0  0  0  0  0  0  0  0  0  0  0
   -1.0459    2.1068    0.1764 C   0  0  2  0  0  0  0  0  0  0  0  0
   -1.9930    2.6687   -0.8392 C   0  0  0  0  0  0  0  0  0  0  0  0
   -2.4745    4.0245   -0.5041 C   0  0  0  0  0  0  0  0  0  0  0  0
   -3.5986    4.1759    0.2882 C   0  0  0  0  0  0  0  0  0  0  0  0
   -4.0512    5.4523    0.5903 C   0  0  0  0  0  0  0  0  0  0  0  0
   -3.3924    6.5652    0.1088 C   0  0  0  0  0  0  0  0  0  0  0  0
   -2.2816    6.4052   -0.6751 C   0  0  0  0  0  0  0  0  0  0  0  0
   -1.8072    5.1229   -0.9925 C   0  0  0  0  0  0  0  0  0  0  0  0
   -1.6630    1.9244    1.4683 N   0  0  0  0  0  0  0  0  0  0  0  0
   -2.5478    0.8974    1.8616 C   0  0  0  0  0  0  0  0  0  0  0  0
   -3.5439    1.2736    2.5464 O   0  0  0  0  0  0  0  0  0  0  0  0
   -7.8608   -4.6575    0.9995 H   0  0  0  0  0  0  0  0  0  0  0  0
   -8.2872   -2.9670    1.3330 H   0  0  0  0  0  0  0  0  0  0  0  0
   -6.2957   -4.5074    3.3762 H   0  0  0  0  0  0  0  0  0  0  0  0
   -4.6903   -3.1531    0.1549 H   0  0  0  0  0  0  0  0  0  0  0  0
   -6.4055   -0.9463    0.6729 H   0  0  0  0  0  0  0  0  0  0  0  0
   -5.1839   -0.9076    1.9494 H   0  0  0  0  0  0  0  0  0  0  0  0
   -4.5394    0.5285   -0.0558 H   0  0  0  0  0  0  0  0  0  0  0  0
   -4.6359   -0.9360   -1.0426 H   0  0  0  0  0  0  0  0  0  0  0  0
   -2.9428   -2.0727    0.1946 H   0  0  0  0  0  0  0  0  0  0  0  0
   -2.3550   -0.5140   -0.6030 H   0  0  0  0  0  0  0  0  0  0  0  0
   -3.0605   -1.0969    2.2897 H   0  0  0  0  0  0  0  0  0  0  0  0
   -0.4659   -0.1576    2.2849 H   0  0  0  0  0  0  0  0  0  0  0  0
   -0.9169   -3.0244   -0.2840 H   0  0  0  0  0  0  0  0  0  0  0  0
    1.7530   -3.7036    0.9576 H   0  0  0  0  0  0  0  0  0  0  0  0
    0.2165   -4.5582    0.9134 H   0  0  0  0  0  0  0  0  0  0  0  0
    3.3349   -3.8319   -0.7914 H   0  0  0  0  0  0  0  0  0  0  0  0
    4.1877   -5.0036   -2.7022 H   0  0  0  0  0  0  0  0  0  0  0  0
    2.1773   -7.3289   -4.6631 H   0  0  0  0  0  0  0  0  0  0  0  0
    0.3585   -6.8830   -3.2332 H   0  0  0  0  0  0  0  0  0  0  0  0
   -0.4964   -5.6271   -1.2475 H   0  0  0  0  0  0  0  0  0  0  0  0
   -0.2137   -1.2066   -1.3930 H   0  0  0  0  0  0  0  0  0  0  0  0
    3.7547   -1.5050   -0.4471 H   0  0  0  0  0  0  0  0  0  0  0  0
    1.9474    0.0753    1.4373 H   0  0  0  0  0  0  0  0  0  0  0  0
    2.7339   -1.5711    1.5687 H   0  0  0  0  0  0  0  0  0  0  0  0
    3.4815    2.0445    1.5817 H   0  0  0  0  0  0  0  0  0  0  0  0
    5.6075    2.8948    2.4177 H   0  0  0  0  0  0  0  0  0  0  0  0
    7.8448    1.5980    4.0629 H   0  0  0  0  0  0  0  0  0  0  0  0
    7.1567   -1.0370    2.7198 H   0  0  0  0  0  0  0  0  0  0  0  0
    5.0583   -1.9515    1.8886 H   0  0  0  0  0  0  0  0  0  0  0  0
    4.6489    0.5978   -0.6953 H   0  0  0  0  0  0  0  0  0  0  0  0
    0.8166    1.2477   -1.5924 H   0  0  0  0  0  0  0  0  0  0  0  0
    2.0991    2.3345   -3.7156 H   0  0  0  0  0  0  0  0  0  0  0  0
    0.3901    2.7966   -3.3060 H   0  0  0  0  0  0  0  0  0  0  0  0
    2.8794    4.4372   -3.0859 H   0  0  0  0  0  0  0  0  0  0  0  0
    1.1621    4.8966   -3.0022 H   0  0  0  0  0  0  0  0  0  0  0  0
    3.0209    4.2121   -0.6822 H   0  0  0  0  0  0  0  0  0  0  0  0
    1.5547    5.1954   -0.8017 H   0  0  0  0  0  0  0  0  0  0  0  0
   -0.6777    1.1248   -0.2345 H   0  0  0  0  0  0  0  0  0  0  0  0
   -1.5269    2.7515   -1.8493 H   0  0  0  0  0  0  0  0  0  0  0  0
   -2.8348    1.9598   -0.9799 H   0  0  0  0  0  0  0  0  0  0  0  0
   -4.1389    3.3475    0.6756 H   0  0  0  0  0  0  0  0  0  0  0  0
   -4.9312    5.5716    1.2104 H   0  0  0  0  0  0  0  0  0  0  0  0
   -3.7481    7.5780    0.3460 H   0  0  0  0  0  0  0  0  0  0  0  0
   -1.7346    7.2404   -1.0741 H   0  0  0  0  0  0  0  0  0  0  0  0
   -0.9335    5.0344   -1.6231 H   0  0  0  0  0  0  0  0  0  0  0  0
   -1.4037    2.6708    2.1959 H   0  0  0  0  0  0  0  0  0  0  0  0
  1  2  1  0
  2  3  2  3
  2  4  1  0
  4  5  1  0
  5  6  1  0
  6  7  1  0
  7  8  1  0
  8  9  1  0
  9 10  1  0
 10 11  2  0
 10 12  1  0
 12 13  1  0
 13 14  1  0
 14 15  2  0
 15 16  1  0
 16 17  2  0
 17 18  1  0
 17 19  1  0
 19 20  2  0
 12 21  1  0
 21 22  1  0
 22 23  2  0
 22 24  1  0
 24 25  1  0
 25 26  1  0
 26 27  2  0
 27 28  1  0
 28 29  2  0
 29 30  1  0
 29 31  1  0
 31 32  2  0
 24 33  1  0
 33 34  1  0
 34 35  2  0
 34 36  1  0
 36 37  1  0
 37 38  1  0
 38 39  1  0
 39 40  1  0
 40 41  1  0
 41 42  2  0
 41 43  1  0
 43 44  1  0
 44 45  1  0
 45 46  2  0
 46 47  1  0
 47 48  2  0
 48 49  1  0
 49 50  2  0
 43 51  1  0
 51 52  1  0
 52 53  2  0
 52  8  1  0
 20 14  1  0
 32 26  1  0
 40 36  1  0
 50 45  1  0
  1 54  1  0
  1 55  1  0
  3 56  1  0
  4 57  1  0
  5 58  1  0
  5 59  1  0
  6 60  1  0
  6 61  1  0
  7 62  1  0
  7 63  1  0
  8 64  1  1
  9 65  1  0
 12 66  1  6
 13 67  1  0
 13 68  1  0
 15 69  1  0
 16 70  1  0
 18 71  1  0
 19 72  1  0
 20 73  1  0
 21 74  1  0
 24 75  1  1
 25 76  1  0
 25 77  1  0
 27 78  1  0
 28 79  1  0
 30 80  1  0
 31 81  1  0
 32 82  1  0
 33 83  1  0
 36 84  1  6
 37 85  1  0
 37 86  1  0
 38 87  1  0
 38 88  1  0
 39 89  1  0
 39 90  1  0
 43 91  1  6
 44 92  1  0
 44 93  1  0
 46 94  1  0
 47 95  1  0
 48 96  1  0
 49 97  1  0
 50 98  1  0
 51 99  1  0
M  END
$$$$
[H]c1nc(N([H])c2c([H])c([H])c(N3C([H])([H])C([H])([H])C([H])(N4C([H])([H])C([H])([H])OC([H])([H])C4([H])[H])C([H])([H])C3([H])[H])c([H])c2OC([H])([H])[H])nc(N([H])c2c([H])c([H])c([H])c([H])c2C(F)(F)F)c1Cl
     RDKit          3D

 69 73  0  0  0  0  0  0  0  0999 V2000
    0.7066   -3.2855    1.1602 C   0  0  0  0  0  0  0  0  0  0  0  0
    1.3525   -2.1088    0.7231 O   0  0  0  0  0  0  0  0  0  0  0  0
    0.5639   -1.0063    0.3279 C   0  0  0  0  0  0  0  0  0  0  0  0
   -0.7875   -1.0545    0.3598 C   0  0  0  0  0  0  0  0  0  0  0  0
   -1.6103   -0.0209   -0.0097 C   0  0  0  0  0  0  0  0  0  0  0  0
   -1.0018    1.1289   -0.4371 C   0  0  0  0  0  0  0  0  0  0  0  0
    0.3989    1.2077   -0.4807 C   0  0  0  0  0  0  0  0  0  0  0  0
    1.2090    0.1695   -0.1092 C   0  0  0  0  0  0  0  0  0  0  0  0
    2.6245    0.1723   -0.1229 N   0  0  0  0  0  0  0  0  0  0  0  0
    3.4964    1.2104   -0.5115 C   0  0  0  0  0  0  0  0  0  0  0  0
    3.1160    2.4120   -0.9501 N   0  0  0  0  0  0  0  0  0  0  0  0
    3.9464    3.3923   -1.3150 C   0  0  0  0  0  0  0  0  0  0  0  0
    5.3055    3.1294   -1.2271 C   0  0  0  0  0  0  0  0  0  0  0  0
    6.4780    4.3416   -1.6803 Cl  0  0  0  0  0  0  0  0  0  0  0  0
    5.7871    1.8859   -0.7736 C   0  0  0  0  0  0  0  0  0  0  0  0
    7.1688    1.7039   -0.6945 N   0  0  0  0  0  0  0  0  0  0  0  0
    7.8365    0.5440   -0.2898 C   0  0  0  0  0  0  0  0  0  0  0  0
    7.2395   -0.6843   -0.0808 C   0  0  0  0  0  0  0  0  0  0  0  0
    7.9965   -1.8079    0.2915 C   0  0  0  0  0  0  0  0  0  0  0  0
    9.3541   -1.7105    0.4564 C   0  0  0  0  0  0  0  0  0  0  0  0
    9.9634   -0.4943    0.2517 C   0  0  0  0  0  0  0  0  0  0  0  0
    9.2320    0.6152   -0.1129 C   0  0  0  0  0  0  0  0  0  0  0  0
    9.9286    1.8982   -0.3019 C   0  0  0  0  0  0  0  0  0  0  0  0
    9.4949    2.8995    0.5609 F   0  0  0  0  0  0  0  0  0  0  0  0
   11.2729    1.6957    0.1078 F   0  0  0  0  0  0  0  0  0  0  0  0
   10.0455    2.3066   -1.6060 F   0  0  0  0  0  0  0  0  0  0  0  0
    4.8427    1.0102   -0.4464 N   0  0  0  0  0  0  0  0  0  0  0  0
   -3.0383   -0.1158    0.0479 N   0  0  0  0  0  0  0  0  0  0  0  0
   -3.7451   -1.2530    0.5982 C   0  0  0  0  0  0  0  0  0  0  0  0
   -5.0018   -0.6604    1.2558 C   0  0  0  0  0  0  0  0  0  0  0  0
   -5.9486   -0.3354    0.1153 C   0  0  0  0  0  0  0  0  0  0  0  0
   -5.2400    0.5046   -0.8950 C   0  0  0  0  0  0  0  0  0  0  0  0
   -3.8616    0.9612   -0.4637 C   0  0  0  0  0  0  0  0  0  0  0  0
   -7.1096    0.3403    0.6478 N   0  0  0  0  0  0  0  0  0  0  0  0
   -7.8211   -0.5139    1.5910 C   0  0  0  0  0  0  0  0  0  0  0  0
   -8.3967   -1.7456    0.9340 C   0  0  0  0  0  0  0  0  0  0  0  0
   -9.2575   -1.3791   -0.0740 O   0  0  0  0  0  0  0  0  0  0  0  0
   -8.6793   -0.5307   -1.0204 C   0  0  0  0  0  0  0  0  0  0  0  0
   -8.0773    0.6907   -0.3603 C   0  0  0  0  0  0  0  0  0  0  0  0
    0.0323   -3.6904    0.3699 H   0  0  0  0  0  0  0  0  0  0  0  0
    0.1688   -3.1269    2.1102 H   0  0  0  0  0  0  0  0  0  0  0  0
    1.5011   -4.0772    1.2827 H   0  0  0  0  0  0  0  0  0  0  0  0
   -1.2543   -1.9823    0.7024 H   0  0  0  0  0  0  0  0  0  0  0  0
   -1.5764    1.9701   -0.7379 H   0  0  0  0  0  0  0  0  0  0  0  0
    0.8100    2.1423   -0.8274 H   0  0  0  0  0  0  0  0  0  0  0  0
    3.1408   -0.7180    0.1988 H   0  0  0  0  0  0  0  0  0  0  0  0
    3.5802    4.3458   -1.6628 H   0  0  0  0  0  0  0  0  0  0  0  0
    7.7616    2.5352   -0.9874 H   0  0  0  0  0  0  0  0  0  0  0  0
    6.1745   -0.8133   -0.2097 H   0  0  0  0  0  0  0  0  0  0  0  0
    7.5000   -2.7476    0.4462 H   0  0  0  0  0  0  0  0  0  0  0  0
    9.9469   -2.5795    0.7451 H   0  0  0  0  0  0  0  0  0  0  0  0
   11.0553   -0.4227    0.3853 H   0  0  0  0  0  0  0  0  0  0  0  0
   -3.1651   -1.8380    1.3260 H   0  0  0  0  0  0  0  0  0  0  0  0
   -4.1101   -1.8576   -0.2544 H   0  0  0  0  0  0  0  0  0  0  0  0
   -5.4385   -1.3764    1.9580 H   0  0  0  0  0  0  0  0  0  0  0  0
   -4.6924    0.2529    1.7621 H   0  0  0  0  0  0  0  0  0  0  0  0
   -6.2835   -1.2973   -0.3187 H   0  0  0  0  0  0  0  0  0  0  0  0
   -5.1214   -0.1040   -1.8373 H   0  0  0  0  0  0  0  0  0  0  0  0
   -5.7825    1.4129   -1.1839 H   0  0  0  0  0  0  0  0  0  0  0  0
   -3.3651    1.3054   -1.4196 H   0  0  0  0  0  0  0  0  0  0  0  0
   -3.9111    1.8318    0.1915 H   0  0  0  0  0  0  0  0  0  0  0  0
   -7.2728   -0.7035    2.5121 H   0  0  0  0  0  0  0  0  0  0  0  0
   -8.7206    0.0985    1.8967 H   0  0  0  0  0  0  0  0  0  0  0  0
   -9.0295   -2.2473    1.7124 H   0  0  0  0  0  0  0  0  0  0  0  0
   -7.6237   -2.4845    0.6291 H   0  0  0  0  0  0  0  0  0  0  0  0
   -9.4828   -0.1901   -1.7004 H   0  0  0  0  0  0  0  0  0  0  0  0
   -7.9234   -1.0705   -1.6338 H   0  0  0  0  0  0  0  0  0  0  0  0
   -7.7686    1.3924   -1.1176 H   0  0  0  0  0  0  0  0  0  0  0  0
   -8.9335    1.1733    0.1956 H   0  0  0  0  0  0  0  0  0  0  0  0
  1  2  1  0
  2  3  1  0
  3  4  2  0
  4  5  1  0
  5  6  2  0
  6  7  1  0
  7  8  2  0
  8  9  1  0
  9 10  1  0
 10 11  2  0
 11 12  1  0
 12 13  2  0
 13 14  1  0
 13 15  1  0
 15 16  1  0
 16 17  1  0
 17 18  2  0
 18 19  1  0
 19 20  2  0
 20 21  1  0
 21 22  2  0
 22 23  1  0
 23 24  1  0
 23 25  1  0
 23 26  1  0
 15 27  2  0
  5 28  1  0
 28 29  1  0
 29 30  1  0
 30 31  1  0
 31 32  1  0
 32 33  1  0
 31 34  1  0
 34 35  1  0
 35 36  1  0
 36 37  1  0
 37 38  1  0
 38 39  1  0
  8  3  1  0
 27 10  1  0
 33 28  1  0
 39 34  1  0
 22 17  1  0
  1 40  1  0
  1 41  1  0
  1 42  1  0
  4 43  1  0
  6 44  1  0
  7 45  1  0
  9 46  1  0
 12 47  1  0
 16 48  1  0
 18 49  1  0
 19 50  1  0
 20 51  1  0
 21 52  1  0
 29 53  1  0
 29 54  1  0
 30 55  1  0
 30 56  1  0
 31 57  1  0
 32 58  1  0
 32 59  1  0
 33 60  1  0
 33 61  1  0
 35 62  1  0
 35 63  1  0
 36 64  1  0
 36 65  1  0
 38 66  1  0
 38 67  1  0
 39 68  1  0
 39 69  1  0
M  END
$$$$
[H]c1nc(N([H])[H])c(C(F)(F)F)nc1-c1c([H])c([H])c(S(=O)(=O)N([H])[C@]([H])(C(=O)N([H])C2([H])C([H])([H])C2([H])[H])C([H])(C([H])([H])[H])C([H])([H])[H])c([H])c1[H]
     RDKit          3D

 53 55  0  0  0  0  0  0  0  0999 V2000
   -4.4138    2.3745    2.2953 C   0  0  0  0  0  0  0  0  0  0  0  0
   -2.9433    2.4049    2.5315 C   0  0  0  0  0  0  0  0  0  0  0  0
   -2.6342    1.7432    3.8426 C   0  0  0  0  0  0  0  0  0  0  0  0
   -2.1056    1.9288    1.3740 C   0  0  2  0  0  0  0  0  0  0  0  0
   -2.3131    2.7473    0.2015 N   0  0  0  0  0  0  0  0  0  0  0  0
   -0.9250    3.5679   -0.3413 S   0  0  0  0  0  0  0  0  0  0  0  0
   -0.3931    4.5688    0.6196 O   0  0  0  0  0  0  0  0  0  0  0  0
   -1.2829    4.3073   -1.5997 O   0  0  0  0  0  0  0  0  0  0  0  0
    0.2640    2.3447   -0.7712 C   0  0  0  0  0  0  0  0  0  0  0  0
    1.1979    1.8592    0.0841 C   0  0  0  0  0  0  0  0  0  0  0  0
    2.0995    0.8711   -0.3377 C   0  0  0  0  0  0  0  0  0  0  0  0
    2.0739    0.3659   -1.6071 C   0  0  0  0  0  0  0  0  0  0  0  0
    1.1100    0.8750   -2.4733 C   0  0  0  0  0  0  0  0  0  0  0  0
    0.2224    1.8465   -2.0607 C   0  0  0  0  0  0  0  0  0  0  0  0
    2.9897   -0.6865   -2.0914 C   0  0  0  0  0  0  0  0  0  0  0  0
    3.9124   -1.2881   -1.2789 C   0  0  0  0  0  0  0  0  0  0  0  0
    4.7116   -2.2503   -1.7643 N   0  0  0  0  0  0  0  0  0  0  0  0
    4.6415   -2.6548   -3.0407 C   0  0  0  0  0  0  0  0  0  0  0  0
    5.5016   -3.6880   -3.5478 N   0  0  0  0  0  0  0  0  0  0  0  0
    3.7117   -2.0475   -3.8579 C   0  0  0  0  0  0  0  0  0  0  0  0
    2.9049   -1.0857   -3.3926 N   0  0  0  0  0  0  0  0  0  0  0  0
    3.6597   -2.5176   -5.2728 C   0  0  0  0  0  0  0  0  0  0  0  0
    2.6986   -1.8370   -5.9824 F   0  0  0  0  0  0  0  0  0  0  0  0
    3.4561   -3.8752   -5.2982 F   0  0  0  0  0  0  0  0  0  0  0  0
    4.8820   -2.2617   -5.8650 F   0  0  0  0  0  0  0  0  0  0  0  0
   -2.2875    0.5205    1.0069 C   0  0  0  0  0  0  0  0  0  0  0  0
   -2.7091    0.2596   -0.1723 O   0  0  0  0  0  0  0  0  0  0  0  0
   -2.0466   -0.6090    1.8106 N   0  0  0  0  0  0  0  0  0  0  0  0
   -2.2684   -1.9608    1.3410 C   0  0  0  0  0  0  0  0  0  0  0  0
   -1.2234   -2.9963    1.5684 C   0  0  0  0  0  0  0  0  0  0  0  0
   -2.4834   -3.0634    2.3257 C   0  0  0  0  0  0  0  0  0  0  0  0
   -4.9371    3.3195    2.6010 H   0  0  0  0  0  0  0  0  0  0  0  0
   -4.6972    2.2221    1.2360 H   0  0  0  0  0  0  0  0  0  0  0  0
   -4.9412    1.5589    2.8658 H   0  0  0  0  0  0  0  0  0  0  0  0
   -2.6894    3.5036    2.7231 H   0  0  0  0  0  0  0  0  0  0  0  0
   -2.8163    2.4452    4.7065 H   0  0  0  0  0  0  0  0  0  0  0  0
   -1.5480    1.5364    3.8964 H   0  0  0  0  0  0  0  0  0  0  0  0
   -3.1707    0.7969    4.0046 H   0  0  0  0  0  0  0  0  0  0  0  0
   -1.0457    2.0604    1.6593 H   0  0  0  0  0  0  0  0  0  0  0  0
   -2.7877    2.2074   -0.5156 H   0  0  0  0  0  0  0  0  0  0  0  0
    1.2518    2.2339    1.0852 H   0  0  0  0  0  0  0  0  0  0  0  0
    2.8364    0.5003    0.3667 H   0  0  0  0  0  0  0  0  0  0  0  0
    1.0916    0.4720   -3.4833 H   0  0  0  0  0  0  0  0  0  0  0  0
   -0.5035    2.2041   -2.7768 H   0  0  0  0  0  0  0  0  0  0  0  0
    4.0085   -1.0040   -0.2559 H   0  0  0  0  0  0  0  0  0  0  0  0
    5.3244   -4.6502   -3.1889 H   0  0  0  0  0  0  0  0  0  0  0  0
    6.2551   -3.5303   -4.2214 H   0  0  0  0  0  0  0  0  0  0  0  0
   -1.6882   -0.5310    2.7783 H   0  0  0  0  0  0  0  0  0  0  0  0
   -2.7267   -1.9990    0.3187 H   0  0  0  0  0  0  0  0  0  0  0  0
   -1.0943   -3.8054    0.7966 H   0  0  0  0  0  0  0  0  0  0  0  0
   -0.3051   -2.7804    2.1457 H   0  0  0  0  0  0  0  0  0  0  0  0
   -3.3057   -3.7638    2.0753 H   0  0  0  0  0  0  0  0  0  0  0  0
   -2.5189   -2.7602    3.4071 H   0  0  0  0  0  0  0  0  0  0  0  0
  1  2  1  0
  2  3  1  0
  2  4  1  0
  4  5  1  0
  5  6  1  0
  6  7  2  0
  6  8  2  0
  6  9  1  0
  9 10  2  0
 10 11  1  0
 11 12  2  0
 12 13  1  0
 13 14  2  0
 12 15  1  0
 15 16  2  0
 16 17  1  0
 17 18  2  0
 18 19  1  0
 18 20  1  0
 20 21  2  0
 20 22  1  0
 22 23  1  0
 22 24  1  0
 22 25  1  0
  4 26  1  0
 26 27  2  0
 26 28  1  0
 28 29  1  0
 29 30  1  0
 30 31  1  0
 14  9  1  0
 21 15  1  0
 31 29  1  0
  1 32  1  0
  1 33  1  0
  1 34  1  0
  2 35  1  0
  3 36  1  0
  3 37  1  0
  3 38  1  0
  4 39  1  1
  5 40  1  0
 10 41  1  0
 11 42  1  0
 13 43  1  0
 14 44  1  0
 16 45  1  0
 19 46  1  0
 19 47  1  0
 28 48  1  0
 29 49  1  0
 30 50  1  0
 30 51  1  0
 31 52  1  0
 31 53  1  0
M  END
$$$$
[H]c1c([H])c([H])c(C(=O)N2C([H])([H])C([H])([H])C([H])([H])[C@@]2([H])C(=O)N([H])[C@]([H])(C(=O)N2C([H])([H])C([H])([H])C([H])(c3c([H])c([H])c([H])c([H])c3[H])C([H])([H])C2([H])[H])C([H])(C([H])([H])[H])C([H])([H])[H])c([H])c1[H]
     RDKit          3D

 69 72  0  0  0  0  0  0  0  0999 V2000
   -0.9314   -3.8293   -1.1406 C   0  0  0  0  0  0  0  0  0  0  0  0
    0.4178   -3.0776   -0.8535 C   0  0  0  0  0  0  0  0  0  0  0  0
    1.1940   -4.1428   -0.0883 C   0  0  0  0  0  0  0  0  0  0  0  0
    0.0378   -1.9199   -0.0622 C   0  0  2  0  0  0  0  0  0  0  0  0
   -0.9646   -1.1148   -0.7742 N   0  0  0  0  0  0  0  0  0  0  0  0
   -2.2957   -0.9166   -0.2503 C   0  0  0  0  0  0  0  0  0  0  0  0
   -2.5109   -1.4924    0.8594 O   0  0  0  0  0  0  0  0  0  0  0  0
   -3.2013   -0.1159   -1.0146 C   0  0  2  0  0  0  0  0  0  0  0  0
   -2.6280    1.0780   -1.7537 C   0  0  0  0  0  0  0  0  0  0  0  0
   -3.9272    1.5239   -2.4602 C   0  0  0  0  0  0  0  0  0  0  0  0
   -5.0722    0.9954   -1.5906 C   0  0  0  0  0  0  0  0  0  0  0  0
   -4.3441    0.5030   -0.4052 N   0  0  0  0  0  0  0  0  0  0  0  0
   -4.7053    0.7893    0.9079 C   0  0  0  0  0  0  0  0  0  0  0  0
   -3.8289    0.5828    1.8286 O   0  0  0  0  0  0  0  0  0  0  0  0
   -5.9739    1.3070    1.4201 C   0  0  0  0  0  0  0  0  0  0  0  0
   -6.0060    1.8707    2.6948 C   0  0  0  0  0  0  0  0  0  0  0  0
   -7.1775    2.2978    3.2422 C   0  0  0  0  0  0  0  0  0  0  0  0
   -8.3852    2.1981    2.5744 C   0  0  0  0  0  0  0  0  0  0  0  0
   -8.3436    1.6414    1.3222 C   0  0  0  0  0  0  0  0  0  0  0  0
   -7.1742    1.2054    0.7561 C   0  0  0  0  0  0  0  0  0  0  0  0
    0.9676   -0.9766    0.5077 C   0  0  0  0  0  0  0  0  0  0  0  0
    0.3102    0.0109    1.1139 O   0  0  0  0  0  0  0  0  0  0  0  0
    2.3382   -0.8217    0.5917 N   0  0  0  0  0  0  0  0  0  0  0  0
    3.3665   -1.5949   -0.0069 C   0  0  0  0  0  0  0  0  0  0  0  0
    4.6243   -0.8482   -0.4015 C   0  0  0  0  0  0  0  0  0  0  0  0
    5.0499    0.1253    0.6319 C   0  0  0  0  0  0  0  0  0  0  0  0
    3.8582    1.0979    0.7805 C   0  0  0  0  0  0  0  0  0  0  0  0
    2.8116    0.2893    1.4612 C   0  0  0  0  0  0  0  0  0  0  0  0
    6.1893    0.9559    0.2421 C   0  0  0  0  0  0  0  0  0  0  0  0
    7.2679    1.0449    1.1099 C   0  0  0  0  0  0  0  0  0  0  0  0
    8.3876    1.8015    0.8354 C   0  0  0  0  0  0  0  0  0  0  0  0
    8.4711    2.5110   -0.3408 C   0  0  0  0  0  0  0  0  0  0  0  0
    7.4025    2.4263   -1.2068 C   0  0  0  0  0  0  0  0  0  0  0  0
    6.2824    1.6644   -0.9232 C   0  0  0  0  0  0  0  0  0  0  0  0
   -1.2258   -4.2987   -0.1820 H   0  0  0  0  0  0  0  0  0  0  0  0
   -1.6573   -3.1468   -1.5735 H   0  0  0  0  0  0  0  0  0  0  0  0
   -0.6287   -4.6529   -1.8325 H   0  0  0  0  0  0  0  0  0  0  0  0
    0.8447   -2.8589   -1.8141 H   0  0  0  0  0  0  0  0  0  0  0  0
    0.6246   -5.0809   -0.0522 H   0  0  0  0  0  0  0  0  0  0  0  0
    1.3820   -3.8388    0.9482 H   0  0  0  0  0  0  0  0  0  0  0  0
    2.1380   -4.4143   -0.6450 H   0  0  0  0  0  0  0  0  0  0  0  0
   -0.5661   -2.3207    0.8318 H   0  0  0  0  0  0  0  0  0  0  0  0
   -0.7326   -0.6707   -1.6748 H   0  0  0  0  0  0  0  0  0  0  0  0
   -3.6686   -0.7399   -1.8725 H   0  0  0  0  0  0  0  0  0  0  0  0
   -1.8749    0.7809   -2.4787 H   0  0  0  0  0  0  0  0  0  0  0  0
   -2.3467    1.8727   -1.0462 H   0  0  0  0  0  0  0  0  0  0  0  0
   -3.9895    1.0074   -3.4166 H   0  0  0  0  0  0  0  0  0  0  0  0
   -3.9990    2.6101   -2.4944 H   0  0  0  0  0  0  0  0  0  0  0  0
   -5.5911    0.1406   -2.0261 H   0  0  0  0  0  0  0  0  0  0  0  0
   -5.7455    1.8452   -1.3459 H   0  0  0  0  0  0  0  0  0  0  0  0
   -5.0479    1.9510    3.2169 H   0  0  0  0  0  0  0  0  0  0  0  0
   -7.1708    2.7375    4.2477 H   0  0  0  0  0  0  0  0  0  0  0  0
   -9.2597    2.5580    3.0744 H   0  0  0  0  0  0  0  0  0  0  0  0
   -9.3080    1.5677    0.8027 H   0  0  0  0  0  0  0  0  0  0  0  0
   -7.2510    0.7389   -0.2226 H   0  0  0  0  0  0  0  0  0  0  0  0
    2.9947   -1.9905   -1.0061 H   0  0  0  0  0  0  0  0  0  0  0  0
    3.6496   -2.4620    0.5913 H   0  0  0  0  0  0  0  0  0  0  0  0
    4.5434   -0.3544   -1.3850 H   0  0  0  0  0  0  0  0  0  0  0  0
    5.4335   -1.6264   -0.5090 H   0  0  0  0  0  0  0  0  0  0  0  0
    5.2256   -0.3682    1.6095 H   0  0  0  0  0  0  0  0  0  0  0  0
    3.5624    1.3325   -0.2585 H   0  0  0  0  0  0  0  0  0  0  0  0
    4.1191    1.9617    1.3883 H   0  0  0  0  0  0  0  0  0  0  0  0
    1.9899    0.8578    1.8904 H   0  0  0  0  0  0  0  0  0  0  0  0
    3.3065   -0.2597    2.3163 H   0  0  0  0  0  0  0  0  0  0  0  0
    7.2745    0.5101    2.0630 H   0  0  0  0  0  0  0  0  0  0  0  0
    9.2206    1.8550    1.5335 H   0  0  0  0  0  0  0  0  0  0  0  0
    9.3579    3.1035   -0.5456 H   0  0  0  0  0  0  0  0  0  0  0  0
    7.4322    2.9696   -2.1400 H   0  0  0  0  0  0  0  0  0  0  0  0
    5.4569    1.6140   -1.6195 H   0  0  0  0  0  0  0  0  0  0  0  0
  1  2  1  0
  2  3  1  0
  2  4  1  0
  4  5  1  0
  5  6  1  0
  6  7  2  0
  6  8  1  0
  8  9  1  0
  9 10  1  0
 10 11  1  0
 11 12  1  0
 12 13  1  0
 13 14  2  0
 13 15  1  0
 15 16  2  0
 16 17  1  0
 17 18  2  0
 18 19  1  0
 19 20  2  0
  4 21  1  0
 21 22  2  0
 21 23  1  0
 23 24  1  0
 24 25  1  0
 25 26  1  0
 26 27  1  0
 27 28  1  0
 26 29  1  0
 29 30  2  0
 30 31  1  0
 31 32  2  0
 32 33  1  0
 33 34  2  0
 12  8  1  0
 20 15  1  0
 28 23  1  0
 34 29  1  0
  1 35  1  0
  1 36  1  0
  1 37  1  0
  2 38  1  0
  3 39  1  0
  3 40  1  0
  3 41  1  0
  4 42  1  1
  5 43  1  0
  8 44  1  6
  9 45  1  0
  9 46  1  0
 10 47  1  0
 10 48  1  0
 11 49  1  0
 11 50  1  0
 16 51  1  0
 17 52  1  0
 18 53  1  0
 19 54  1  0
 20 55  1  0
 24 56  1  0
 24 57  1  0
 25 58  1  0
 25 59  1  0
 26 60  1  0
 27 61  1  0
 27 62  1  0
 28 63  1  0
 28 64  1  0
 30 65  1  0
 31 66  1  0
 32 67  1  0
 33 68  1  0
 34 69  1  0
M  END
$$$$
[H]c1c([H])c(OC([H])([H])[H])c([H])c(N([H])C(=O)c2c([H])c(N([H])C(=O)c3c([H])c(OC([H])([H])[H])c([H])c(OC([H])([H])[H])c3F)c([H])c([H])c2OC([H])([H])[H])c1[H]
     RDKit          3D

 56 58  0  0  0  0  0  0  0  0999 V2000
   -7.9755   -2.9791   -2.3099 C   0  0  0  0  0  0  0  0  0  0  0  0
   -6.7450   -2.3436   -2.3213 O   0  0  0  0  0  0  0  0  0  0  0  0
   -6.2165   -1.4043   -1.4889 C   0  0  0  0  0  0  0  0  0  0  0  0
   -6.9961   -0.9460   -0.4096 C   0  0  0  0  0  0  0  0  0  0  0  0
   -6.4500   -0.0076    0.4276 C   0  0  0  0  0  0  0  0  0  0  0  0
   -7.1756    0.4866    1.4879 O   0  0  0  0  0  0  0  0  0  0  0  0
   -8.4693    0.1574    1.8737 C   0  0  0  0  0  0  0  0  0  0  0  0
   -5.1564    0.4547    0.1955 C   0  0  0  0  0  0  0  0  0  0  0  0
   -4.6579    1.4072    1.0421 F   0  0  0  0  0  0  0  0  0  0  0  0
   -4.3896    0.0277   -0.8325 C   0  0  0  0  0  0  0  0  0  0  0  0
   -4.9284   -0.9162   -1.6940 C   0  0  0  0  0  0  0  0  0  0  0  0
   -2.9863    0.4434   -0.9923 C   0  0  0  0  0  0  0  0  0  0  0  0
   -2.6538    0.8224   -2.1325 O   0  0  0  0  0  0  0  0  0  0  0  0
   -2.0798    0.4110    0.0503 N   0  0  0  0  0  0  0  0  0  0  0  0
   -0.7347    0.8205   -0.0817 C   0  0  0  0  0  0  0  0  0  0  0  0
   -0.4073    1.8844   -0.8557 C   0  0  0  0  0  0  0  0  0  0  0  0
    0.9317    2.2271   -1.0055 C   0  0  0  0  0  0  0  0  0  0  0  0
    1.9305    1.5177   -0.3872 C   0  0  0  0  0  0  0  0  0  0  0  0
    3.2277    1.8779   -0.5603 O   0  0  0  0  0  0  0  0  0  0  0  0
    3.6349    2.9561   -1.3327 C   0  0  0  0  0  0  0  0  0  0  0  0
    1.5864    0.4519    0.3886 C   0  0  0  0  0  0  0  0  0  0  0  0
    0.2550    0.0918    0.5506 C   0  0  0  0  0  0  0  0  0  0  0  0
    2.6444   -0.3545    1.0993 C   0  0  0  0  0  0  0  0  0  0  0  0
    2.0831   -1.3320    1.7441 O   0  0  0  0  0  0  0  0  0  0  0  0
    3.9220   -0.1141    1.0745 N   0  0  0  0  0  0  0  0  0  0  0  0
    5.2887    0.1389    1.0509 C   0  0  0  0  0  0  0  0  0  0  0  0
    5.8413    1.3476    1.4694 C   0  0  0  0  0  0  0  0  0  0  0  0
    7.1648    1.6671    1.4340 C   0  0  0  0  0  0  0  0  0  0  0  0
    8.0040    0.6852    0.9342 C   0  0  0  0  0  0  0  0  0  0  0  0
    7.5480   -0.5441    0.4961 C   0  0  0  0  0  0  0  0  0  0  0  0
    8.4936   -1.4543    0.0076 O   0  0  0  0  0  0  0  0  0  0  0  0
    8.1565   -2.7452   -0.4552 C   0  0  0  0  0  0  0  0  0  0  0  0
    6.2113   -0.7997    0.5597 C   0  0  0  0  0  0  0  0  0  0  0  0
   -7.7966   -4.0500   -2.6818 H   0  0  0  0  0  0  0  0  0  0  0  0
   -8.6923   -2.5575   -3.0106 H   0  0  0  0  0  0  0  0  0  0  0  0
   -8.3780   -3.0495   -1.2869 H   0  0  0  0  0  0  0  0  0  0  0  0
   -7.9866   -1.3648   -0.3073 H   0  0  0  0  0  0  0  0  0  0  0  0
   -8.9614   -0.6352    1.2713 H   0  0  0  0  0  0  0  0  0  0  0  0
   -8.5195   -0.0915    2.9475 H   0  0  0  0  0  0  0  0  0  0  0  0
   -9.0957    1.0809    1.6761 H   0  0  0  0  0  0  0  0  0  0  0  0
   -4.3556   -1.2956   -2.5440 H   0  0  0  0  0  0  0  0  0  0  0  0
   -2.3764    0.0237    1.0207 H   0  0  0  0  0  0  0  0  0  0  0  0
   -1.1226    2.4948   -1.3414 H   0  0  0  0  0  0  0  0  0  0  0  0
    1.1747    3.0721   -1.6179 H   0  0  0  0  0  0  0  0  0  0  0  0
    4.6688    3.2948   -1.0688 H   0  0  0  0  0  0  0  0  0  0  0  0
    3.6249    2.6625   -2.4040 H   0  0  0  0  0  0  0  0  0  0  0  0
    2.9497    3.8203   -1.2410 H   0  0  0  0  0  0  0  0  0  0  0  0
    0.0119   -0.7459    1.1761 H   0  0  0  0  0  0  0  0  0  0  0  0
    4.1820   -1.1107    2.0124 H   0  0  0  0  0  0  0  0  0  0  0  0
    5.1158    2.0740    1.8352 H   0  0  0  0  0  0  0  0  0  0  0  0
    7.5865    2.5996    1.7585 H   0  0  0  0  0  0  0  0  0  0  0  0
    9.0502    0.9456    0.9204 H   0  0  0  0  0  0  0  0  0  0  0  0
    8.7694   -3.0813   -1.3375 H   0  0  0  0  0  0  0  0  0  0  0  0
    8.3529   -3.5096    0.3406 H   0  0  0  0  0  0  0  0  0  0  0  0
    7.1157   -2.7656   -0.8215 H   0  0  0  0  0  0  0  0  0  0  0  0
    5.7805   -1.7471    0.2241 H   0  0  0  0  0  0  0  0  0  0  0  0
  1  2  1  0
  2  3  1  0
  3  4  2  0
  4  5  1  0
  5  6  1  0
  6  7  1  0
  5  8  2  0
  8  9  1  0
  8 10  1  0
 10 11  2  0
 10 12  1  0
 12 13  2  0
 12 14  1  0
 14 15  1  0
 15 16  2  0
 16 17  1  0
 17 18  2  0
 18 19  1  0
 19 20  1  0
 18 21  1  0
 21 22  2  0
 21 23  1  0
 23 24  2  0
 23 25  1  0
 25 26  1  0
 26 27  2  0
 27 28  1  0
 28 29  2  0
 29 30  1  0
 30 31  1  0
 31 32  1  0
 30 33  2  0
 11  3  1  0
 22 15  1  0
 33 26  1  0
  1 34  1  0
  1 35  1  0
  1 36  1  0
  4 37  1  0
  7 38  1  0
  7 39  1  0
  7 40  1  0
 11 41  1  0
 14 42  1  0
 16 43  1  0
 17 44  1  0
 20 45  1  0
 20 46  1  0
 20 47  1  0
 22 48  1  0
 25 49  1  0
 27 50  1  0
 28 51  1  0
 29 52  1  0
 32 53  1  0
 32 54  1  0
 32 55  1  0
 33 56  1  0
M  END
$$$$
[H]c1nc(N([H])c2c([H])c([H])c(N3C([H])([H])C([H])([H])N(C([H])([H])[H])C([H])([H])C3([H])[H])c([H])c2OC([H])([H])[H])nc(N([H])c2c([H])c([H])c([H])c([H])c2S(=O)(=O)C([H])(C([H])([H])[H])C([H])([H])[H])c1F
     RDKit          3D

 67 70  0  0  0  0  0  0  0  0999 V2000
    2.7091   -3.0371   -1.7859 C   0  0  0  0  0  0  0  0  0  0  0  0
    1.9805   -1.9454   -1.3048 O   0  0  0  0  0  0  0  0  0  0  0  0
    2.5341   -0.8718   -0.6403 C   0  0  0  0  0  0  0  0  0  0  0  0
    3.8937   -0.8442   -0.4206 C   0  0  0  0  0  0  0  0  0  0  0  0
    4.4982    0.1877    0.2286 C   0  0  0  0  0  0  0  0  0  0  0  0
    3.6947    1.2200    0.6664 C   0  0  0  0  0  0  0  0  0  0  0  0
    2.3177    1.1830    0.4392 C   0  0  0  0  0  0  0  0  0  0  0  0
    1.6834    0.1559   -0.2122 C   0  0  0  0  0  0  0  0  0  0  0  0
    0.3151    0.0382   -0.4820 N   0  0  0  0  0  0  0  0  0  0  0  0
   -0.7237    0.9433   -0.1487 C   0  0  0  0  0  0  0  0  0  0  0  0
   -0.5430    2.0901    0.4991 N   0  0  0  0  0  0  0  0  0  0  0  0
   -1.5340    2.9383    0.8089 C   0  0  0  0  0  0  0  0  0  0  0  0
   -2.8038    2.5872    0.4279 C   0  0  0  0  0  0  0  0  0  0  0  0
   -3.8434    3.4156    0.7196 F   0  0  0  0  0  0  0  0  0  0  0  0
   -3.0761    1.3876   -0.2623 C   0  0  0  0  0  0  0  0  0  0  0  0
   -4.3981    1.0672   -0.6207 N   0  0  0  0  0  0  0  0  0  0  0  0
   -4.8965   -0.0348   -1.3034 C   0  0  0  0  0  0  0  0  0  0  0  0
   -4.1236   -0.9726   -1.9582 C   0  0  0  0  0  0  0  0  0  0  0  0
   -4.6272   -2.0450   -2.6838 C   0  0  0  0  0  0  0  0  0  0  0  0
   -5.9882   -2.1915   -2.7617 C   0  0  0  0  0  0  0  0  0  0  0  0
   -6.8097   -1.2947   -2.1335 C   0  0  0  0  0  0  0  0  0  0  0  0
   -6.2831   -0.2271   -1.4104 C   0  0  0  0  0  0  0  0  0  0  0  0
   -7.4076    0.8043   -0.6163 S   0  0  0  0  0  0  0  0  0  0  0  0
   -7.3035    2.2484   -1.0251 O   0  0  0  0  0  0  0  0  0  0  0  0
   -8.8316    0.3149   -0.9003 O   0  0  0  0  0  0  0  0  0  0  0  0
   -7.2226    0.6631    1.1398 C   0  0  0  0  0  0  0  0  0  0  0  0
   -7.5901   -0.7489    1.5584 C   0  0  0  0  0  0  0  0  0  0  0  0
   -8.2047    1.6631    1.7600 C   0  0  0  0  0  0  0  0  0  0  0  0
   -2.0062    0.6424   -0.5045 N   0  0  0  0  0  0  0  0  0  0  0  0
    5.8999    0.2076    0.4360 N   0  0  0  0  0  0  0  0  0  0  0  0
    6.5613    1.0812    1.4053 C   0  0  0  0  0  0  0  0  0  0  0  0
    7.5625    0.2938    2.2283 C   0  0  0  0  0  0  0  0  0  0  0  0
    8.3164   -0.6621    1.4850 N   0  0  0  0  0  0  0  0  0  0  0  0
    9.3138   -0.1075    0.6186 C   0  0  0  0  0  0  0  0  0  0  0  0
    7.4523   -1.5466    0.7240 C   0  0  0  0  0  0  0  0  0  0  0  0
    6.7779   -0.6385   -0.3211 C   0  0  0  0  0  0  0  0  0  0  0  0
    2.0853   -3.6216   -2.4934 H   0  0  0  0  0  0  0  0  0  0  0  0
    3.0429   -3.6418   -0.9194 H   0  0  0  0  0  0  0  0  0  0  0  0
    3.6204   -2.7432   -2.3646 H   0  0  0  0  0  0  0  0  0  0  0  0
    4.4873   -1.6909   -0.7803 H   0  0  0  0  0  0  0  0  0  0  0  0
    4.1574    2.0422    1.1789 H   0  0  0  0  0  0  0  0  0  0  0  0
    1.7512    2.0180    0.8060 H   0  0  0  0  0  0  0  0  0  0  0  0
    0.0169   -0.8478   -1.0064 H   0  0  0  0  0  0  0  0  0  0  0  0
   -1.3740    3.8755    1.3402 H   0  0  0  0  0  0  0  0  0  0  0  0
   -5.1171    1.8032   -0.3369 H   0  0  0  0  0  0  0  0  0  0  0  0
   -3.0304   -0.9071   -1.9413 H   0  0  0  0  0  0  0  0  0  0  0  0
   -3.9485   -2.7483   -3.1761 H   0  0  0  0  0  0  0  0  0  0  0  0
   -6.3766   -3.0407   -3.3373 H   0  0  0  0  0  0  0  0  0  0  0  0
   -7.8776   -1.4384   -2.2148 H   0  0  0  0  0  0  0  0  0  0  0  0
   -6.2164    0.9353    1.4347 H   0  0  0  0  0  0  0  0  0  0  0  0
   -8.0419   -0.7577    2.5582 H   0  0  0  0  0  0  0  0  0  0  0  0
   -6.6700   -1.3592    1.5525 H   0  0  0  0  0  0  0  0  0  0  0  0
   -8.2754   -1.2171    0.8007 H   0  0  0  0  0  0  0  0  0  0  0  0
   -8.4720    1.4028    2.7841 H   0  0  0  0  0  0  0  0  0  0  0  0
   -7.7153    2.6550    1.7046 H   0  0  0  0  0  0  0  0  0  0  0  0
   -9.1042    1.7340    1.0946 H   0  0  0  0  0  0  0  0  0  0  0  0
    5.8789    1.5560    2.1089 H   0  0  0  0  0  0  0  0  0  0  0  0
    7.1332    1.8728    0.8687 H   0  0  0  0  0  0  0  0  0  0  0  0
    7.0689   -0.2199    3.0670 H   0  0  0  0  0  0  0  0  0  0  0  0
    8.2946    1.0536    2.6280 H   0  0  0  0  0  0  0  0  0  0  0  0
    9.0971    0.9301    0.3505 H   0  0  0  0  0  0  0  0  0  0  0  0
   10.3177   -0.1130    1.1221 H   0  0  0  0  0  0  0  0  0  0  0  0
    9.4283   -0.7784   -0.2628 H   0  0  0  0  0  0  0  0  0  0  0  0
    6.6331   -1.8977    1.3827 H   0  0  0  0  0  0  0  0  0  0  0  0
    7.9957   -2.3689    0.2629 H   0  0  0  0  0  0  0  0  0  0  0  0
    6.3403   -1.2027   -1.1365 H   0  0  0  0  0  0  0  0  0  0  0  0
    7.5764    0.0701   -0.7249 H   0  0  0  0  0  0  0  0  0  0  0  0
  1  2  1  0
  2  3  1  0
  3  4  2  0
  4  5  1  0
  5  6  2  0
  6  7  1  0
  7  8  2  0
  8  9  1  0
  9 10  1  0
 10 11  2  0
 11 12  1  0
 12 13  2  0
 13 14  1  0
 13 15  1  0
 15 16  1  0
 16 17  1  0
 17 18  2  0
 18 19  1  0
 19 20  2  0
 20 21  1  0
 21 22  2  0
 22 23  1  0
 23 24  2  0
 23 25  2  0
 23 26  1  0
 26 27  1  0
 26 28  1  0
 15 29  2  0
  5 30  1  0
 30 31  1  0
 31 32  1  0
 32 33  1  0
 33 34  1  0
 33 35  1  0
 35 36  1  0
  8  3  1  0
 29 10  1  0
 36 30  1  0
 22 17  1  0
  1 37  1  0
  1 38  1  0
  1 39  1  0
  4 40  1  0
  6 41  1  0
  7 42  1  0
  9 43  1  0
 12 44  1  0
 16 45  1  0
 18 46  1  0
 19 47  1  0
 20 48  1  0
 21 49  1  0
 26 50  1  0
 27 51  1  0
 27 52  1  0
 27 53  1  0
 28 54  1  0
 28 55  1  0
 28 56  1  0
 31 57  1  0
 31 58  1  0
 32 59  1  0
 32 60  1  0
 34 61  1  0
 34 62  1  0
 34 63  1  0
 35 64  1  0
 35 65  1  0
 36 66  1  0
 36 67  1  0
M  END
$$$$
[H]c1c([H])c(S(=O)(=O)N2C([H])([H])C([H])([H])N(C(=O)[C@]3([H])C([H])([H])C([H])([H])[C@@]([H])(N([H])C(=O)c4c([H])c([H])c(S(=O)(=O)C([H])([H])[H])c([H])c4[H])C([H])([H])C3([H])[H])C([H])([H])C2([H])[H])c([H])c([H])c1OC([H])([H])[H]
     RDKit          3D

 71 74  0  0  0  0  0  0  0  0999 V2000
  -11.6792    0.9751   -0.4569 C   0  0  0  0  0  0  0  0  0  0  0  0
  -10.6337    0.8029   -1.4053 O   0  0  0  0  0  0  0  0  0  0  0  0
   -9.4277    0.2764   -0.9654 C   0  0  0  0  0  0  0  0  0  0  0  0
   -9.2376   -0.0735    0.3620 C   0  0  0  0  0  0  0  0  0  0  0  0
   -8.0286   -0.5984    0.7888 C   0  0  0  0  0  0  0  0  0  0  0  0
   -6.9676   -0.7977   -0.0677 C   0  0  0  0  0  0  0  0  0  0  0  0
   -7.1682   -0.4456   -1.3852 C   0  0  0  0  0  0  0  0  0  0  0  0
   -8.3775    0.0848   -1.8376 C   0  0  0  0  0  0  0  0  0  0  0  0
   -5.4440   -1.4622    0.4946 S   0  0  0  0  0  0  0  0  0  0  0  0
   -4.8981   -2.3461   -0.5890 O   0  0  0  0  0  0  0  0  0  0  0  0
   -5.7287   -2.3776    1.6827 O   0  0  0  0  0  0  0  0  0  0  0  0
   -4.3133   -0.3324    0.9670 N   0  0  0  0  0  0  0  0  0  0  0  0
   -3.8338    0.5949    0.0457 C   0  0  0  0  0  0  0  0  0  0  0  0
   -2.3496    0.8504    0.0292 C   0  0  0  0  0  0  0  0  0  0  0  0
   -1.6951   -0.1551    0.8042 N   0  0  0  0  0  0  0  0  0  0  0  0
   -2.1569   -0.4316    2.1397 C   0  0  0  0  0  0  0  0  0  0  0  0
   -3.6379   -0.5187    2.1795 C   0  0  0  0  0  0  0  0  0  0  0  0
   -0.5889   -0.8686    0.2942 C   0  0  0  0  0  0  0  0  0  0  0  0
   -0.0176   -1.7836    0.9757 O   0  0  0  0  0  0  0  0  0  0  0  0
   -0.0203   -0.6059   -1.0485 C   0  0  1  0  0  0  0  0  0  0  0  0
    0.6009    0.7512   -1.0554 C   0  0  0  0  0  0  0  0  0  0  0  0
    2.1071    0.7081   -1.1448 C   0  0  0  0  0  0  0  0  0  0  0  0
    2.7024   -0.4263   -0.3815 C   0  0  1  0  0  0  0  0  0  0  0  0
    2.1988   -1.7559   -0.8216 C   0  0  0  0  0  0  0  0  0  0  0  0
    0.8865   -1.6957   -1.5009 C   0  0  0  0  0  0  0  0  0  0  0  0
    4.1469   -0.3010   -0.4977 N   0  0  0  0  0  0  0  0  0  0  0  0
    5.0184   -0.2543    0.6141 C   0  0  0  0  0  0  0  0  0  0  0  0
    4.4672   -0.3352    1.7651 O   0  0  0  0  0  0  0  0  0  0  0  0
    6.4554   -0.1240    0.4693 C   0  0  0  0  0  0  0  0  0  0  0  0
    7.3017   -0.5334    1.4785 C   0  0  0  0  0  0  0  0  0  0  0  0
    8.6715   -0.3842    1.3159 C   0  0  0  0  0  0  0  0  0  0  0  0
    9.2392    0.1616    0.1782 C   0  0  0  0  0  0  0  0  0  0  0  0
    8.3820    0.5662   -0.8223 C   0  0  0  0  0  0  0  0  0  0  0  0
    7.0005    0.4223   -0.6729 C   0  0  0  0  0  0  0  0  0  0  0  0
   10.9694    0.3294   -0.0061 S   0  0  0  0  0  0  0  0  0  0  0  0
   11.4815    1.8646    0.7725 C   0  0  0  0  0  0  0  0  0  0  0  0
   11.6271   -0.7997    0.7234 O   0  0  0  0  0  0  0  0  0  0  0  0
   11.3673    0.3273   -1.4579 O   0  0  0  0  0  0  0  0  0  0  0  0
  -11.9839   -0.0582   -0.1287 H   0  0  0  0  0  0  0  0  0  0  0  0
  -11.3358    1.5825    0.3975 H   0  0  0  0  0  0  0  0  0  0  0  0
  -12.5686    1.4444   -0.9065 H   0  0  0  0  0  0  0  0  0  0  0  0
  -10.0532    0.0779    1.0380 H   0  0  0  0  0  0  0  0  0  0  0  0
   -7.8811   -0.8717    1.8246 H   0  0  0  0  0  0  0  0  0  0  0  0
   -6.3580   -0.5878   -2.0907 H   0  0  0  0  0  0  0  0  0  0  0  0
   -8.5052    0.3567   -2.8821 H   0  0  0  0  0  0  0  0  0  0  0  0
   -4.4069    1.5574    0.1724 H   0  0  0  0  0  0  0  0  0  0  0  0
   -4.1156    0.2400   -0.9898 H   0  0  0  0  0  0  0  0  0  0  0  0
   -2.0122    0.9182   -1.0294 H   0  0  0  0  0  0  0  0  0  0  0  0
   -2.1258    1.8703    0.4707 H   0  0  0  0  0  0  0  0  0  0  0  0
   -1.8006    0.4472    2.7617 H   0  0  0  0  0  0  0  0  0  0  0  0
   -1.6899   -1.3661    2.5428 H   0  0  0  0  0  0  0  0  0  0  0  0
   -4.0331    0.2301    2.9273 H   0  0  0  0  0  0  0  0  0  0  0  0
   -3.9305   -1.5068    2.6161 H   0  0  0  0  0  0  0  0  0  0  0  0
   -0.8996   -0.6122   -1.7609 H   0  0  0  0  0  0  0  0  0  0  0  0
    0.2510    1.3289   -0.1844 H   0  0  0  0  0  0  0  0  0  0  0  0
    0.2584    1.2927   -1.9667 H   0  0  0  0  0  0  0  0  0  0  0  0
    2.4827    0.7666   -2.1741 H   0  0  0  0  0  0  0  0  0  0  0  0
    2.4580    1.6575   -0.6405 H   0  0  0  0  0  0  0  0  0  0  0  0
    2.4837   -0.3485    0.7275 H   0  0  0  0  0  0  0  0  0  0  0  0
    2.9555   -2.2508   -1.4872 H   0  0  0  0  0  0  0  0  0  0  0  0
    2.1416   -2.4289    0.0663 H   0  0  0  0  0  0  0  0  0  0  0  0
    0.4061   -2.7132   -1.3624 H   0  0  0  0  0  0  0  0  0  0  0  0
    1.0803   -1.6585   -2.6058 H   0  0  0  0  0  0  0  0  0  0  0  0
    4.5504   -0.2441   -1.4507 H   0  0  0  0  0  0  0  0  0  0  0  0
    6.8998   -0.9699    2.3943 H   0  0  0  0  0  0  0  0  0  0  0  0
    9.3645   -0.6962    2.0892 H   0  0  0  0  0  0  0  0  0  0  0  0
    8.7621    1.0075   -1.7552 H   0  0  0  0  0  0  0  0  0  0  0  0
    6.3212    0.7375   -1.4510 H   0  0  0  0  0  0  0  0  0  0  0  0
   12.5942    1.8797    0.8552 H   0  0  0  0  0  0  0  0  0  0  0  0
   11.1786    2.7465    0.2007 H   0  0  0  0  0  0  0  0  0  0  0  0
   11.0924    1.8574    1.8181 H   0  0  0  0  0  0  0  0  0  0  0  0
  1  2  1  0
  2  3  1  0
  3  4  2  0
  4  5  1  0
  5  6  2  0
  6  7  1  0
  7  8  2  0
  6  9  1  0
  9 10  2  0
  9 11  2  0
  9 12  1  0
 12 13  1  0
 13 14  1  0
 14 15  1  0
 15 16  1  0
 16 17  1  0
 15 18  1  0
 18 19  2  0
 18 20  1  0
 20 21  1  0
 21 22  1  0
 22 23  1  0
 23 24  1  0
 24 25  1  0
 23 26  1  0
 26 27  1  0
 27 28  2  0
 27 29  1  0
 29 30  2  0
 30 31  1  0
 31 32  2  0
 32 33  1  0
 33 34  2  0
 32 35  1  0
 35 36  1  0
 35 37  2  0
 35 38  2  0
  8  3  1  0
 17 12  1  0
 25 20  1  0
 34 29  1  0
  1 39  1  0
  1 40  1  0
  1 41  1  0
  4 42  1  0
  5 43  1  0
  7 44  1  0
  8 45  1  0
 13 46  1  0
 13 47  1  0
 14 48  1  0
 14 49  1  0
 16 50  1  0
 16 51  1  0
 17 52  1  0
 17 53  1  0
 20 54  1  6
 21 55  1  0
 21 56  1  0
 22 57  1  0
 22 58  1  0
 23 59  1  1
 24 60  1  0
 24 61  1  0
 25 62  1  0
 25 63  1  0
 26 64  1  0
 30 65  1  0
 31 66  1  0
 33 67  1  0
 34 68  1  0
 36 69  1  0
 36 70  1  0
 36 71  1  0
M  END
$$$$
[H]c1c([H])c([H])c(C([H])([H])OC(=O)N([H])[C@]([H])(C(=O)N([H])[C@]([H])(C(=O)N([H])[C@]([H])(C(=O)N([H])[C@]([H])(C(=O)N([H])[H])C([H])([H])c2c([H])c([H])c([H])c([H])c2[H])C([H])([H])c2c([H])c([H])c([H])c([H])c2[H])C([H])([H])C([H])(C([H])([H])[H])C([H])([H])[H])C([H])([H])C([H])(C([H])([H])[H])C([H])([H])[H])c([H])c1[H]
     RDKit          3D

 98100  0  0  0  0  0  0  0  0999 V2000
    4.1134    4.8041    1.0504 C   0  0  0  0  0  0  0  0  0  0  0  0
    3.9317    4.4314   -0.4031 C   0  0  0  0  0  0  0  0  0  0  0  0
    5.1514    4.7609   -1.2354 C   0  0  0  0  0  0  0  0  0  0  0  0
    3.3760    3.0770   -0.6220 C   0  0  0  0  0  0  0  0  0  0  0  0
    4.1159    1.9125   -0.1133 C   0  0  2  0  0  0  0  0  0  0  0  0
    5.4516    1.8056   -0.6965 N   0  0  0  0  0  0  0  0  0  0  0  0
    6.5666    1.4260    0.0686 C   0  0  0  0  0  0  0  0  0  0  0  0
    6.3507    1.1768    1.3088 O   0  0  0  0  0  0  0  0  0  0  0  0
    7.8736    1.2855   -0.3559 O   0  0  0  0  0  0  0  0  0  0  0  0
    8.8826    0.8560    0.5939 C   0  0  0  0  0  0  0  0  0  0  0  0
    8.5428   -0.4748    1.1134 C   0  0  0  0  0  0  0  0  0  0  0  0
    7.8088   -1.3629    0.3270 C   0  0  0  0  0  0  0  0  0  0  0  0
    7.4730   -2.6135    0.7947 C   0  0  0  0  0  0  0  0  0  0  0  0
    7.8521   -3.0138    2.0456 C   0  0  0  0  0  0  0  0  0  0  0  0
    8.5761   -2.1556    2.8405 C   0  0  0  0  0  0  0  0  0  0  0  0
    8.9193   -0.8798    2.3622 C   0  0  0  0  0  0  0  0  0  0  0  0
    3.3351    0.6527   -0.4619 C   0  0  0  0  0  0  0  0  0  0  0  0
    3.8821   -0.2187   -1.1829 O   0  0  0  0  0  0  0  0  0  0  0  0
    2.0264    0.4830    0.0274 N   0  0  0  0  0  0  0  0  0  0  0  0
    1.2261   -0.6736   -0.2441 C   0  0  1  0  0  0  0  0  0  0  0  0
    1.4445   -1.7418    0.7655 C   0  0  0  0  0  0  0  0  0  0  0  0
    1.2001   -1.4278    2.1849 C   0  0  0  0  0  0  0  0  0  0  0  0
    1.5143   -2.7111    2.9792 C   0  0  0  0  0  0  0  0  0  0  0  0
   -0.1648   -1.0179    2.5909 C   0  0  0  0  0  0  0  0  0  0  0  0
   -0.0918   -0.4522   -0.7997 C   0  0  0  0  0  0  0  0  0  0  0  0
   -0.4243    0.7138   -1.1461 O   0  0  0  0  0  0  0  0  0  0  0  0
   -1.0252   -1.4861   -0.9771 N   0  0  0  0  0  0  0  0  0  0  0  0
   -2.3638   -1.3072   -1.5781 C   0  0  1  0  0  0  0  0  0  0  0  0
   -2.5146   -2.4175   -2.5310 C   0  0  0  0  0  0  0  0  0  0  0  0
   -3.7311   -2.5935   -3.2930 C   0  0  0  0  0  0  0  0  0  0  0  0
   -3.9360   -1.9255   -4.4747 C   0  0  0  0  0  0  0  0  0  0  0  0
   -5.0751   -2.1150   -5.2418 C   0  0  0  0  0  0  0  0  0  0  0  0
   -6.0557   -2.9866   -4.8504 C   0  0  0  0  0  0  0  0  0  0  0  0
   -5.8311   -3.6595   -3.6436 C   0  0  0  0  0  0  0  0  0  0  0  0
   -4.7133   -3.4768   -2.8857 C   0  0  0  0  0  0  0  0  0  0  0  0
   -3.3936   -1.0107   -0.6173 C   0  0  0  0  0  0  0  0  0  0  0  0
   -3.0917   -1.0469    0.6102 O   0  0  0  0  0  0  0  0  0  0  0  0
   -4.7349   -0.6640   -0.8898 N   0  0  0  0  0  0  0  0  0  0  0  0
   -5.6797   -0.3497    0.2009 C   0  0  1  0  0  0  0  0  0  0  0  0
   -5.9037    1.1448    0.1941 C   0  0  0  0  0  0  0  0  0  0  0  0
   -6.8268    1.5942    1.2320 C   0  0  0  0  0  0  0  0  0  0  0  0
   -6.3558    1.7874    2.5135 C   0  0  0  0  0  0  0  0  0  0  0  0
   -7.1719    2.2588    3.4810 C   0  0  0  0  0  0  0  0  0  0  0  0
   -8.5018    2.5726    3.2561 C   0  0  0  0  0  0  0  0  0  0  0  0
   -8.9726    2.3837    1.9935 C   0  0  0  0  0  0  0  0  0  0  0  0
   -8.1649    1.9055    0.9916 C   0  0  0  0  0  0  0  0  0  0  0  0
   -6.8936   -1.1230    0.1999 C   0  0  0  0  0  0  0  0  0  0  0  0
   -7.8841   -1.1479    1.2085 N   0  0  0  0  0  0  0  0  0  0  0  0
   -7.1518   -1.8950   -0.7966 O   0  0  0  0  0  0  0  0  0  0  0  0
    3.1538    5.0561    1.5532 H   0  0  0  0  0  0  0  0  0  0  0  0
    4.7188    4.0770    1.6058 H   0  0  0  0  0  0  0  0  0  0  0  0
    4.7088    5.7646    1.0561 H   0  0  0  0  0  0  0  0  0  0  0  0
    3.1372    5.1519   -0.7858 H   0  0  0  0  0  0  0  0  0  0  0  0
    4.9515    4.4242   -2.2731 H   0  0  0  0  0  0  0  0  0  0  0  0
    5.1835    5.8914   -1.2963 H   0  0  0  0  0  0  0  0  0  0  0  0
    6.0886    4.3849   -0.8185 H   0  0  0  0  0  0  0  0  0  0  0  0
    3.1049    3.0028   -1.7042 H   0  0  0  0  0  0  0  0  0  0  0  0
    2.3571    3.0718   -0.1129 H   0  0  0  0  0  0  0  0  0  0  0  0
    4.2801    1.8816    0.9944 H   0  0  0  0  0  0  0  0  0  0  0  0
    5.5954    2.0114   -1.7136 H   0  0  0  0  0  0  0  0  0  0  0  0
    9.8393    0.7853    0.0403 H   0  0  0  0  0  0  0  0  0  0  0  0
    9.0297    1.6275    1.3849 H   0  0  0  0  0  0  0  0  0  0  0  0
    7.4961   -1.0685   -0.6650 H   0  0  0  0  0  0  0  0  0  0  0  0
    6.8958   -3.3295    0.1962 H   0  0  0  0  0  0  0  0  0  0  0  0
    7.5735   -4.0176    2.3978 H   0  0  0  0  0  0  0  0  0  0  0  0
    8.8935   -2.4293    3.8307 H   0  0  0  0  0  0  0  0  0  0  0  0
    9.4976   -0.2286    3.0277 H   0  0  0  0  0  0  0  0  0  0  0  0
    1.6159    1.2596    0.6277 H   0  0  0  0  0  0  0  0  0  0  0  0
    1.8082   -1.1333   -1.1812 H   0  0  0  0  0  0  0  0  0  0  0  0
    0.8453   -2.6423    0.4259 H   0  0  0  0  0  0  0  0  0  0  0  0
    2.5026   -2.1059    0.6794 H   0  0  0  0  0  0  0  0  0  0  0  0
    1.9051   -0.6202    2.4882 H   0  0  0  0  0  0  0  0  0  0  0  0
    2.2627   -3.3149    2.4323 H   0  0  0  0  0  0  0  0  0  0  0  0
    0.5790   -3.2894    3.0243 H   0  0  0  0  0  0  0  0  0  0  0  0
    1.9463   -2.4427    3.9645 H   0  0  0  0  0  0  0  0  0  0  0  0
   -0.9347   -1.7953    2.3403 H   0  0  0  0  0  0  0  0  0  0  0  0
   -0.4601    0.0043    2.3096 H   0  0  0  0  0  0  0  0  0  0  0  0
   -0.1708   -1.0264    3.7288 H   0  0  0  0  0  0  0  0  0  0  0  0
   -0.8208   -2.4821   -0.6785 H   0  0  0  0  0  0  0  0  0  0  0  0
   -2.2199   -0.3378   -2.1726 H   0  0  0  0  0  0  0  0  0  0  0  0
   -2.3392   -3.3912   -1.9595 H   0  0  0  0  0  0  0  0  0  0  0  0
   -1.5980   -2.4229   -3.2201 H   0  0  0  0  0  0  0  0  0  0  0  0
   -3.2117   -1.2092   -4.8724 H   0  0  0  0  0  0  0  0  0  0  0  0
   -5.2465   -1.5916   -6.1814 H   0  0  0  0  0  0  0  0  0  0  0  0
   -6.9709   -3.1824   -5.4017 H   0  0  0  0  0  0  0  0  0  0  0  0
   -6.6040   -4.3685   -3.2992 H   0  0  0  0  0  0  0  0  0  0  0  0
   -4.5976   -4.0306   -1.9558 H   0  0  0  0  0  0  0  0  0  0  0  0
   -5.1428   -0.5969   -1.8425 H   0  0  0  0  0  0  0  0  0  0  0  0
   -5.1249   -0.5432    1.1683 H   0  0  0  0  0  0  0  0  0  0  0  0
   -6.3159    1.4906   -0.7824 H   0  0  0  0  0  0  0  0  0  0  0  0
   -4.9072    1.6502    0.3090 H   0  0  0  0  0  0  0  0  0  0  0  0
   -5.3185    1.5481    2.7119 H   0  0  0  0  0  0  0  0  0  0  0  0
   -6.8008    2.4125    4.4970 H   0  0  0  0  0  0  0  0  0  0  0  0
   -9.0976    2.9415    4.0522 H   0  0  0  0  0  0  0  0  0  0  0  0
  -10.0220    2.6341    1.8243 H   0  0  0  0  0  0  0  0  0  0  0  0
   -8.5469    1.7577   -0.0101 H   0  0  0  0  0  0  0  0  0  0  0  0
   -7.5810   -1.1365    2.1989 H   0  0  0  0  0  0  0  0  0  0  0  0
   -8.8991   -1.1764    1.0030 H   0  0  0  0  0  0  0  0  0  0  0  0
  1  2  1  0
  2  3  1  0
  2  4  1  0
  4  5  1  0
  5  6  1  0
  6  7  1  0
  7  8  2  0
  7  9  1  0
  9 10  1  0
 10 11  1  0
 11 12  2  0
 12 13  1  0
 13 14  2  0
 14 15  1  0
 15 16  2  0
  5 17  1  0
 17 18  2  0
 17 19  1  0
 19 20  1  0
 20 21  1  0
 21 22  1  0
 22 23  1  0
 22 24  1  0
 20 25  1  0
 25 26  2  0
 25 27  1  0
 27 28  1  0
 28 29  1  0
 29 30  1  0
 30 31  2  0
 31 32  1  0
 32 33  2  0
 33 34  1  0
 34 35  2  0
 28 36  1  0
 36 37  2  0
 36 38  1  0
 38 39  1  0
 39 40  1  0
 40 41  1  0
 41 42  2  0
 42 43  1  0
 43 44  2  0
 44 45  1  0
 45 46  2  0
 39 47  1  0
 47 48  1  0
 47 49  2  0
 16 11  1  0
 35 30  1  0
 46 41  1  0
  1 50  1  0
  1 51  1  0
  1 52  1  0
  2 53  1  0
  3 54  1  0
  3 55  1  0
  3 56  1  0
  4 57  1  0
  4 58  1  0
  5 59  1  1
  6 60  1  0
 10 61  1  0
 10 62  1  0
 12 63  1  0
 13 64  1  0
 14 65  1  0
 15 66  1  0
 16 67  1  0
 19 68  1  0
 20 69  1  6
 21 70  1  0
 21 71  1  0
 22 72  1  0
 23 73  1  0
 23 74  1  0
 23 75  1  0
 24 76  1  0
 24 77  1  0
 24 78  1  0
 27 79  1  0
 28 80  1  6
 29 81  1  0
 29 82  1  0
 31 83  1  0
 32 84  1  0
 33 85  1  0
 34 86  1  0
 35 87  1  0
 38 88  1  0
 39 89  1  1
 40 90  1  0
 40 91  1  0
 42 92  1  0
 43 93  1  0
 44 94  1  0
 45 95  1  0
 46 96  1  0
 48 97  1  0
 48 98  1  0
M  END
$$$$
[H]O[C@@]1(C([H])([H])[H])C([H])([H])C([H])([H])[C@]2([H])[C@]1(C([H])([H])[H])C([H])([H])C([H])([H])[C@]1([H])[C@]3(C([H])([H])[H])C(=C([H])C(=O)C([H])([H])C3([H])[H])C([H])([H])C([H])([H])[C@@]21[H]
     RDKit          3D

 52 55  0  0  0  0  0  0  0  0999 V2000
    1.9556    1.0588    1.4036 C   0  0  0  0  0  0  0  0  0  0  0  0
    2.0770    0.4241    0.0517 C   0  0  2  0  0  0  0  0  0  0  0  0
    1.5213    1.2907   -1.0181 C   0  0  0  0  0  0  0  0  0  0  0  0
    0.0475    1.5086   -0.7001 C   0  0  0  0  0  0  0  0  0  0  0  0
   -0.6910    0.2015   -0.6228 C   0  0  1  0  0  0  0  0  0  0  0  0
   -0.0493   -0.7862    0.3223 C   0  0  1  0  0  0  0  0  0  0  0  0
   -0.7789   -2.1008    0.1646 C   0  0  0  0  0  0  0  0  0  0  0  0
   -1.9665   -2.0474   -0.7333 C   0  0  0  0  0  0  0  0  0  0  0  0
   -2.8278   -0.8603   -0.5312 C   0  0  0  0  0  0  0  0  0  0  0  0
   -4.1272   -0.9009   -0.6512 C   0  0  0  0  0  0  0  0  0  0  0  0
   -4.8724    0.3252   -0.4303 C   0  0  0  0  0  0  0  0  0  0  0  0
   -6.0535    0.3037   -0.0161 O   0  0  0  0  0  0  0  0  0  0  0  0
   -4.2327    1.6258   -0.6971 C   0  0  0  0  0  0  0  0  0  0  0  0
   -2.7518    1.6090   -0.7900 C   0  0  0  0  0  0  0  0  0  0  0  0
   -2.1019    0.4116   -0.1739 C   0  0  2  0  0  0  0  0  0  0  0  0
   -2.2139    0.5479    1.3366 C   0  0  0  0  0  0  0  0  0  0  0  0
    1.3795   -0.9163   -0.0419 C   0  0  2  0  0  0  0  0  0  0  0  0
    2.2184   -1.7635    0.8487 C   0  0  0  0  0  0  0  0  0  0  0  0
    3.6234   -1.4167    0.3324 C   0  0  0  0  0  0  0  0  0  0  0  0
    3.5118    0.0171   -0.1430 C   0  0  1  0  0  0  0  0  0  0  0  0
    4.0049    0.2131   -1.5399 C   0  0  0  0  0  0  0  0  0  0  0  0
    4.3408    0.7793    0.7042 O   0  0  0  0  0  0  0  0  0  0  0  0
    2.5772    0.5433    2.1718 H   0  0  0  0  0  0  0  0  0  0  0  0
    2.4010    2.0826    1.3137 H   0  0  0  0  0  0  0  0  0  0  0  0
    0.9385    1.1933    1.7663 H   0  0  0  0  0  0  0  0  0  0  0  0
    1.5432    0.7154   -1.9789 H   0  0  0  0  0  0  0  0  0  0  0  0
    2.0037    2.2781   -1.1197 H   0  0  0  0  0  0  0  0  0  0  0  0
   -0.0800    2.1511    0.1737 H   0  0  0  0  0  0  0  0  0  0  0  0
   -0.3673    2.0629   -1.5767 H   0  0  0  0  0  0  0  0  0  0  0  0
   -0.7112   -0.2322   -1.6314 H   0  0  0  0  0  0  0  0  0  0  0  0
   -0.1393   -0.4933    1.3796 H   0  0  0  0  0  0  0  0  0  0  0  0
   -1.1247   -2.5080    1.1512 H   0  0  0  0  0  0  0  0  0  0  0  0
   -0.0880   -2.8853   -0.2574 H   0  0  0  0  0  0  0  0  0  0  0  0
   -2.6049   -2.9385   -0.4950 H   0  0  0  0  0  0  0  0  0  0  0  0
   -1.6919   -2.1865   -1.8147 H   0  0  0  0  0  0  0  0  0  0  0  0
   -4.6113   -1.8414   -0.9088 H   0  0  0  0  0  0  0  0  0  0  0  0
   -4.6089    2.3907    0.0464 H   0  0  0  0  0  0  0  0  0  0  0  0
   -4.6778    1.9888   -1.6714 H   0  0  0  0  0  0  0  0  0  0  0  0
   -2.4415    1.7816   -1.8360 H   0  0  0  0  0  0  0  0  0  0  0  0
   -2.3708    2.5083   -0.2220 H   0  0  0  0  0  0  0  0  0  0  0  0
   -1.4566    1.2845    1.7243 H   0  0  0  0  0  0  0  0  0  0  0  0
   -2.1230   -0.4280    1.8477 H   0  0  0  0  0  0  0  0  0  0  0  0
   -3.1956    0.9780    1.6192 H   0  0  0  0  0  0  0  0  0  0  0  0
    1.5229   -1.2696   -1.0850 H   0  0  0  0  0  0  0  0  0  0  0  0
    2.1794   -1.4384    1.8960 H   0  0  0  0  0  0  0  0  0  0  0  0
    2.0229   -2.8484    0.7479 H   0  0  0  0  0  0  0  0  0  0  0  0
    3.8121   -2.0407   -0.5852 H   0  0  0  0  0  0  0  0  0  0  0  0
    4.3822   -1.5688    1.0995 H   0  0  0  0  0  0  0  0  0  0  0  0
    5.1030    0.2408   -1.5512 H   0  0  0  0  0  0  0  0  0  0  0  0
    3.5945   -0.5513   -2.2532 H   0  0  0  0  0  0  0  0  0  0  0  0
    3.6625    1.2208   -1.8740 H   0  0  0  0  0  0  0  0  0  0  0  0
    4.5365    0.2858    1.5532 H   0  0  0  0  0  0  0  0  0  0  0  0
  2  1  1  1
  2  3  1  0
  3  4  1  0
  4  5  1  0
  5  6  1  0
  6  7  1  0
  7  8  1  0
  8  9  1  0
  9 10  2  0
 10 11  1  0
 11 12  2  0
 11 13  1  0
 13 14  1  0
 14 15  1  0
 15 16  1  1
  6 17  1  0
 17 18  1  0
 18 19  1  0
 19 20  1  0
 20 21  1  0
 20 22  1  1
 17  2  1  0
 20  2  1  0
 15  5  1  0
 15  9  1  0
  1 23  1  0
  1 24  1  0
  1 25  1  0
  3 26  1  0
  3 27  1  0
  4 28  1  0
  4 29  1  0
  5 30  1  6
  6 31  1  1
  7 32  1  0
  7 33  1  0
  8 34  1  0
  8 35  1  0
 10 36  1  0
 13 37  1  0
 13 38  1  0
 14 39  1  0
 14 40  1  0
 16 41  1  0
 16 42  1  0
 16 43  1  0
 17 44  1  6
 18 45  1  0
 18 46  1  0
 19 47  1  0
 19 48  1  0
 21 49  1  0
 21 50  1  0
 21 51  1  0
 22 52  1  0
M  END
$$$$
[H]c1c([H])c(S(=O)(=O)N([H])c2c([H])c([H])c(C(C([H])([H])[H])(C([H])([H])[H])C([H])([H])[H])c([H])c2[H])c([H])c([H])c1OC([H])([H])[H]
     RDKit          3D

 43 44  0  0  0  0  0  0  0  0999 V2000
    6.8660    0.3193    1.9618 C   0  0  0  0  0  0  0  0  0  0  0  0
    6.6596   -0.4403    0.7978 O   0  0  0  0  0  0  0  0  0  0  0  0
    5.4804   -0.2885    0.0958 C   0  0  0  0  0  0  0  0  0  0  0  0
    5.2663   -1.0327   -1.0641 C   0  0  0  0  0  0  0  0  0  0  0  0
    4.1005   -0.8982   -1.7812 C   0  0  0  0  0  0  0  0  0  0  0  0
    3.0977   -0.0201   -1.3790 C   0  0  0  0  0  0  0  0  0  0  0  0
    3.2894    0.7174   -0.2455 C   0  0  0  0  0  0  0  0  0  0  0  0
    4.4754    0.5799    0.4830 C   0  0  0  0  0  0  0  0  0  0  0  0
    1.6497    0.1267   -2.3267 S   0  0  0  0  0  0  0  0  0  0  0  0
    1.0967    1.5234   -2.1447 O   0  0  0  0  0  0  0  0  0  0  0  0
    2.0599   -0.0068   -3.7825 O   0  0  0  0  0  0  0  0  0  0  0  0
    0.4807   -1.0447   -1.9176 N   0  0  0  0  0  0  0  0  0  0  0  0
   -0.7407   -0.6766   -1.3072 C   0  0  0  0  0  0  0  0  0  0  0  0
   -1.5263    0.3661   -1.7474 C   0  0  0  0  0  0  0  0  0  0  0  0
   -2.7124    0.6344   -1.0855 C   0  0  0  0  0  0  0  0  0  0  0  0
   -3.1571   -0.0829   -0.0072 C   0  0  0  0  0  0  0  0  0  0  0  0
   -2.3606   -1.1351    0.4335 C   0  0  0  0  0  0  0  0  0  0  0  0
   -1.1774   -1.4234   -0.2049 C   0  0  0  0  0  0  0  0  0  0  0  0
   -4.4377    0.2594    0.6514 C   0  0  0  0  0  0  0  0  0  0  0  0
   -4.3551    1.6671    1.1959 C   0  0  0  0  0  0  0  0  0  0  0  0
   -4.7067   -0.6656    1.8286 C   0  0  0  0  0  0  0  0  0  0  0  0
   -5.5475    0.1545   -0.3549 C   0  0  0  0  0  0  0  0  0  0  0  0
    7.9677    0.2908    2.2076 H   0  0  0  0  0  0  0  0  0  0  0  0
    6.2823   -0.0658    2.8202 H   0  0  0  0  0  0  0  0  0  0  0  0
    6.6234    1.4014    1.7438 H   0  0  0  0  0  0  0  0  0  0  0  0
    6.0301   -1.7365   -1.4137 H   0  0  0  0  0  0  0  0  0  0  0  0
    3.9214   -1.4792   -2.6942 H   0  0  0  0  0  0  0  0  0  0  0  0
    2.5610    1.4206    0.1329 H   0  0  0  0  0  0  0  0  0  0  0  0
    4.6351    1.1675    1.3883 H   0  0  0  0  0  0  0  0  0  0  0  0
    0.6363   -2.0755   -2.1065 H   0  0  0  0  0  0  0  0  0  0  0  0
   -1.2100    0.9573   -2.6078 H   0  0  0  0  0  0  0  0  0  0  0  0
   -3.3002    1.4813   -1.4841 H   0  0  0  0  0  0  0  0  0  0  0  0
   -2.7245   -1.6970    1.2891 H   0  0  0  0  0  0  0  0  0  0  0  0
   -0.5716   -2.2529    0.1592 H   0  0  0  0  0  0  0  0  0  0  0  0
   -4.6139    1.7044    2.2829 H   0  0  0  0  0  0  0  0  0  0  0  0
   -3.3083    2.0670    1.1421 H   0  0  0  0  0  0  0  0  0  0  0  0
   -4.9724    2.3815    0.6120 H   0  0  0  0  0  0  0  0  0  0  0  0
   -3.9096   -0.4757    2.5686 H   0  0  0  0  0  0  0  0  0  0  0  0
   -4.7430   -1.7186    1.5353 H   0  0  0  0  0  0  0  0  0  0  0  0
   -5.6653   -0.3459    2.2698 H   0  0  0  0  0  0  0  0  0  0  0  0
   -6.4082    0.8113   -0.1006 H   0  0  0  0  0  0  0  0  0  0  0  0
   -5.1372    0.4298   -1.3654 H   0  0  0  0  0  0  0  0  0  0  0  0
   -5.8940   -0.8990   -0.4515 H   0  0  0  0  0  0  0  0  0  0  0  0
  1  2  1  0
  2  3  1  0
  3  4  2  0
  4  5  1  0
  5  6  2  0
  6  7  1  0
  7  8  2  0
  6  9  1  0
  9 10  2  0
  9 11  2  0
  9 12  1  0
 12 13  1  0
 13 14  2  0
 14 15  1  0
 15 16  2  0
 16 17  1  0
 17 18  2  0
 16 19  1  0
 19 20  1  0
 19 21  1  0
 19 22  1  0
  8  3  1  0
 18 13  1  0
  1 23  1  0
  1 24  1  0
  1 25  1  0
  4 26  1  0
  5 27  1  0
  7 28  1  0
  8 29  1  0
 12 30  1  0
 14 31  1  0
 15 32  1  0
 17 33  1  0
 18 34  1  0
 20 35  1  0
 20 36  1  0
 20 37  1  0
 21 38  1  0
 21 39  1  0
 21 40  1  0
 22 41  1  0
 22 42  1  0
 22 43  1  0
M  END
$$$$
[H]O[C@]1([H])C([H])([H])[C@]([H])(N([H])C(=O)[C@@]([H])(N([H])C(=O)c2c([H])c([H])c(-c3nc(C(F)(F)F)c([H])n3[H])c([H])c2[H])C([H])([H])C([H])(C([H])([H])[H])C([H])([H])[H])C1([H])[H]
     RDKit          3D

 56 58  0  0  0  0  0  0  0  0999 V2000
   -2.3507   -3.5304   -1.1919 C   0  0  0  0  0  0  0  0  0  0  0  0
   -2.2723   -3.3466    0.3198 C   0  0  0  0  0  0  0  0  0  0  0  0
   -3.1837   -4.3791    0.9220 C   0  0  0  0  0  0  0  0  0  0  0  0
   -2.8878   -1.9762    0.6868 C   0  0  0  0  0  0  0  0  0  0  0  0
   -2.1760   -0.8694    0.0524 C   0  0  2  0  0  0  0  0  0  0  0  0
   -0.8100   -0.7441    0.4586 N   0  0  0  0  0  0  0  0  0  0  0  0
    0.2206   -0.4964   -0.4786 C   0  0  0  0  0  0  0  0  0  0  0  0
    0.0032   -0.3782   -1.7191 O   0  0  0  0  0  0  0  0  0  0  0  0
    1.6208   -0.3493   -0.0961 C   0  0  0  0  0  0  0  0  0  0  0  0
    2.1136    0.9312    0.0486 C   0  0  0  0  0  0  0  0  0  0  0  0
    3.4379    1.1737    0.3409 C   0  0  0  0  0  0  0  0  0  0  0  0
    4.3173    0.1189    0.5029 C   0  0  0  0  0  0  0  0  0  0  0  0
    3.8237   -1.1589    0.3622 C   0  0  0  0  0  0  0  0  0  0  0  0
    2.4885   -1.4020    0.0664 C   0  0  0  0  0  0  0  0  0  0  0  0
    5.7706    0.3629    0.6107 C   0  0  0  0  0  0  0  0  0  0  0  0
    6.3688    1.3181   -0.1505 N   0  0  0  0  0  0  0  0  0  0  0  0
    7.6857    1.2250   -0.0029 C   0  0  0  0  0  0  0  0  0  0  0  0
    7.9187    0.1865    0.8746 C   0  0  0  0  0  0  0  0  0  0  0  0
    6.7366   -0.3052    1.2255 N   0  0  0  0  0  0  0  0  0  0  0  0
    8.6613    2.0482   -0.7403 C   0  0  0  0  0  0  0  0  0  0  0  0
    9.6949    1.1824   -1.1801 F   0  0  0  0  0  0  0  0  0  0  0  0
    8.0333    2.5432   -1.8986 F   0  0  0  0  0  0  0  0  0  0  0  0
    9.1396    3.0454    0.0538 F   0  0  0  0  0  0  0  0  0  0  0  0
   -2.8586    0.4280    0.1503 C   0  0  0  0  0  0  0  0  0  0  0  0
   -2.1591    1.5152    0.0950 O   0  0  0  0  0  0  0  0  0  0  0  0
   -4.2483    0.6009    0.3020 N   0  0  0  0  0  0  0  0  0  0  0  0
   -5.0019    1.7772    0.3469 C   0  0  1  0  0  0  0  0  0  0  0  0
   -4.5307    3.0434    0.9853 C   0  0  0  0  0  0  0  0  0  0  0  0
   -5.4088    3.7437   -0.1090 C   0  0  1  0  0  0  0  0  0  0  0  0
   -5.0387    5.0039   -0.4201 O   0  0  0  0  0  0  0  0  0  0  0  0
   -4.8780    2.6083   -0.9939 C   0  0  0  0  0  0  0  0  0  0  0  0
   -1.5522   -2.9994   -1.7290 H   0  0  0  0  0  0  0  0  0  0  0  0
   -2.2624   -4.6043   -1.4145 H   0  0  0  0  0  0  0  0  0  0  0  0
   -3.3724   -3.2023   -1.5005 H   0  0  0  0  0  0  0  0  0  0  0  0
   -1.2685   -3.4690    0.7011 H   0  0  0  0  0  0  0  0  0  0  0  0
   -3.1893   -5.3460    0.3769 H   0  0  0  0  0  0  0  0  0  0  0  0
   -4.2258   -3.9804    0.8662 H   0  0  0  0  0  0  0  0  0  0  0  0
   -2.9804   -4.5681    1.9977 H   0  0  0  0  0  0  0  0  0  0  0  0
   -3.9578   -2.0642    0.5029 H   0  0  0  0  0  0  0  0  0  0  0  0
   -2.7449   -1.9060    1.8095 H   0  0  0  0  0  0  0  0  0  0  0  0
   -2.1556   -1.0818   -1.1176 H   0  0  0  0  0  0  0  0  0  0  0  0
   -0.5897   -0.8400    1.4692 H   0  0  0  0  0  0  0  0  0  0  0  0
    1.4731    1.7767   -0.0505 H   0  0  0  0  0  0  0  0  0  0  0  0
    3.7650    2.2032    0.4529 H   0  0  0  0  0  0  0  0  0  0  0  0
    4.4990   -2.0027    0.4761 H   0  0  0  0  0  0  0  0  0  0  0  0
    2.1155   -2.4180   -0.0503 H   0  0  0  0  0  0  0  0  0  0  0  0
    8.8852   -0.1683    1.2087 H   0  0  0  0  0  0  0  0  0  0  0  0
    6.5894   -1.1153    1.8989 H   0  0  0  0  0  0  0  0  0  0  0  0
   -4.8054   -0.3104    0.4061 H   0  0  0  0  0  0  0  0  0  0  0  0
   -6.1095    1.6561    0.4771 H   0  0  0  0  0  0  0  0  0  0  0  0
   -4.9062    3.2682    2.0144 H   0  0  0  0  0  0  0  0  0  0  0  0
   -3.4730    3.3205    0.8569 H   0  0  0  0  0  0  0  0  0  0  0  0
   -6.4593    3.5403    0.1021 H   0  0  0  0  0  0  0  0  0  0  0  0
   -4.1402    5.2913   -0.2002 H   0  0  0  0  0  0  0  0  0  0  0  0
   -5.5441    2.2620   -1.7770 H   0  0  0  0  0  0  0  0  0  0  0  0
   -3.8208    2.8374   -1.2393 H   0  0  0  0  0  0  0  0  0  0  0  0
  1  2  1  0
  2  3  1  0
  2  4  1  0
  4  5  1  0
  5  6  1  0
  6  7  1  0
  7  8  2  0
  7  9  1  0
  9 10  2  0
 10 11  1  0
 11 12  2  0
 12 13  1  0
 13 14  2  0
 12 15  1  0
 15 16  2  0
 16 17  1  0
 17 18  2  0
 18 19  1  0
 17 20  1  0
 20 21  1  0
 20 22  1  0
 20 23  1  0
  5 24  1  0
 24 25  2  0
 24 26  1  0
 26 27  1  0
 27 28  1  0
 28 29  1  0
 29 30  1  0
 29 31  1  0
 14  9  1  0
 19 15  1  0
 31 27  1  0
  1 32  1  0
  1 33  1  0
  1 34  1  0
  2 35  1  0
  3 36  1  0
  3 37  1  0
  3 38  1  0
  4 39  1  0
  4 40  1  0
  5 41  1  6
  6 42  1  0
 10 43  1  0
 11 44  1  0
 13 45  1  0
 14 46  1  0
 18 47  1  0
 19 48  1  0
 26 49  1  0
 27 50  1  1
 28 51  1  0
 28 52  1  0
 29 53  1  1
 30 54  1  0
 31 55  1  0
 31 56  1  0
M  END
$$$$
[H]N(C(=O)C(C([H])([H])[H])(C([H])([H])[H])C([H])([H])[H])[C@]([H])(C(=O)N([H])[C@]([H])(C(=O)N1C([H])([H])C([H])([H])C([H])([H])[C@]1([H])C#N)C([H])(C([H])([H])[H])C([H])([H])[H])C([H])([H])C([H])(C([H])([H])[H])C([H])([H])[H]
     RDKit          3D

 64 64  0  0  0  0  0  0  0  0999 V2000
   -0.7487    2.5083    1.2322 C   0  0  0  0  0  0  0  0  0  0  0  0
   -2.0710    2.5025    0.5150 C   0  0  0  0  0  0  0  0  0  0  0  0
   -2.2973    3.9443    0.0384 C   0  0  0  0  0  0  0  0  0  0  0  0
   -2.1519    1.6193   -0.6732 C   0  0  0  0  0  0  0  0  0  0  0  0
   -1.9207    0.1653   -0.4497 C   0  0  2  0  0  0  0  0  0  0  0  0
   -2.8333   -0.4323    0.4748 N   0  0  0  0  0  0  0  0  0  0  0  0
   -3.7669   -1.3997    0.0917 C   0  0  0  0  0  0  0  0  0  0  0  0
   -3.7919   -1.7517   -1.1368 O   0  0  0  0  0  0  0  0  0  0  0  0
   -4.7308   -2.0508    0.9944 C   0  0  0  0  0  0  0  0  0  0  0  0
   -5.6608   -1.0109    1.6250 C   0  0  0  0  0  0  0  0  0  0  0  0
   -4.0424   -2.7427    2.1599 C   0  0  0  0  0  0  0  0  0  0  0  0
   -5.5479   -3.0920    0.2656 C   0  0  0  0  0  0  0  0  0  0  0  0
   -0.5140   -0.2282   -0.2136 C   0  0  0  0  0  0  0  0  0  0  0  0
   -0.2812   -1.0035    0.7484 O   0  0  0  0  0  0  0  0  0  0  0  0
    0.5855    0.2030   -0.9934 N   0  0  0  0  0  0  0  0  0  0  0  0
    1.9446   -0.2425   -0.6892 C   0  0  1  0  0  0  0  0  0  0  0  0
    2.3671   -1.1504   -1.8337 C   0  0  0  0  0  0  0  0  0  0  0  0
    1.3869   -2.3281   -1.9021 C   0  0  0  0  0  0  0  0  0  0  0  0
    2.3397   -0.4655   -3.1591 C   0  0  0  0  0  0  0  0  0  0  0  0
    2.8684    0.8852   -0.5656 C   0  0  0  0  0  0  0  0  0  0  0  0
    2.4894    2.0850   -0.8422 O   0  0  0  0  0  0  0  0  0  0  0  0
    4.2076    0.7523   -0.1424 N   0  0  0  0  0  0  0  0  0  0  0  0
    5.1729    1.8614   -0.0179 C   0  0  0  0  0  0  0  0  0  0  0  0
    6.0048    1.5193    1.1917 C   0  0  0  0  0  0  0  0  0  0  0  0
    5.5310    0.1609    1.6161 C   0  0  0  0  0  0  0  0  0  0  0  0
    4.9792   -0.4013    0.2883 C   0  0  2  0  0  0  0  0  0  0  0  0
    6.1193   -0.6739   -0.5655 C   0  0  0  0  0  0  0  0  0  0  0  0
    7.0228   -0.8737   -1.2284 N   0  0  0  0  0  0  0  0  0  0  0  0
   -0.6189    1.6202    1.8692 H   0  0  0  0  0  0  0  0  0  0  0  0
    0.0913    2.7596    0.5837 H   0  0  0  0  0  0  0  0  0  0  0  0
   -0.8150    3.3794    1.9582 H   0  0  0  0  0  0  0  0  0  0  0  0
   -2.8704    2.2872    1.2652 H   0  0  0  0  0  0  0  0  0  0  0  0
   -1.8051    4.1179   -0.9395 H   0  0  0  0  0  0  0  0  0  0  0  0
   -3.3864    4.1385   -0.0798 H   0  0  0  0  0  0  0  0  0  0  0  0
   -1.9199    4.6721    0.7585 H   0  0  0  0  0  0  0  0  0  0  0  0
   -1.4071    1.9659   -1.4333 H   0  0  0  0  0  0  0  0  0  0  0  0
   -3.1564    1.7483   -1.1519 H   0  0  0  0  0  0  0  0  0  0  0  0
   -2.1651   -0.3209   -1.4584 H   0  0  0  0  0  0  0  0  0  0  0  0
   -2.7913   -0.1263    1.4729 H   0  0  0  0  0  0  0  0  0  0  0  0
   -5.0136   -0.2819    2.1798 H   0  0  0  0  0  0  0  0  0  0  0  0
   -6.3015   -1.4874    2.3835 H   0  0  0  0  0  0  0  0  0  0  0  0
   -6.2997   -0.5196    0.8907 H   0  0  0  0  0  0  0  0  0  0  0  0
   -4.7726   -3.5190    2.5316 H   0  0  0  0  0  0  0  0  0  0  0  0
   -3.1339   -3.2743    1.8750 H   0  0  0  0  0  0  0  0  0  0  0  0
   -3.9183   -2.0282    2.9891 H   0  0  0  0  0  0  0  0  0  0  0  0
   -6.5696   -3.2091    0.6749 H   0  0  0  0  0  0  0  0  0  0  0  0
   -5.0458   -4.0988    0.3560 H   0  0  0  0  0  0  0  0  0  0  0  0
   -5.6112   -2.8888   -0.8244 H   0  0  0  0  0  0  0  0  0  0  0  0
    0.4303    0.8468   -1.7966 H   0  0  0  0  0  0  0  0  0  0  0  0
    1.9018   -0.8583    0.2179 H   0  0  0  0  0  0  0  0  0  0  0  0
    3.3374   -1.5958   -1.5678 H   0  0  0  0  0  0  0  0  0  0  0  0
    1.3810   -2.9162   -0.9863 H   0  0  0  0  0  0  0  0  0  0  0  0
    1.6710   -2.8939   -2.8068 H   0  0  0  0  0  0  0  0  0  0  0  0
    0.3925   -1.8664   -2.1319 H   0  0  0  0  0  0  0  0  0  0  0  0
    2.3081    0.6239   -3.1202 H   0  0  0  0  0  0  0  0  0  0  0  0
    3.2895   -0.7440   -3.6893 H   0  0  0  0  0  0  0  0  0  0  0  0
    1.4540   -0.7844   -3.7830 H   0  0  0  0  0  0  0  0  0  0  0  0
    5.7919    1.8888   -0.9343 H   0  0  0  0  0  0  0  0  0  0  0  0
    4.5833    2.7803    0.0912 H   0  0  0  0  0  0  0  0  0  0  0  0
    5.7008    2.2302    1.9990 H   0  0  0  0  0  0  0  0  0  0  0  0
    7.0879    1.5819    1.0000 H   0  0  0  0  0  0  0  0  0  0  0  0
    6.4084   -0.5056    1.8502 H   0  0  0  0  0  0  0  0  0  0  0  0
    4.7695    0.1624    2.3979 H   0  0  0  0  0  0  0  0  0  0  0  0
    4.3424   -1.2438    0.5307 H   0  0  0  0  0  0  0  0  0  0  0  0
  1  2  1  0
  2  3  1  0
  2  4  1  0
  4  5  1  0
  5  6  1  0
  6  7  1  0
  7  8  2  0
  7  9  1  0
  9 10  1  0
  9 11  1  0
  9 12  1  0
  5 13  1  0
 13 14  2  0
 13 15  1  0
 15 16  1  0
 16 17  1  0
 17 18  1  0
 17 19  1  0
 16 20  1  0
 20 21  2  0
 20 22  1  0
 22 23  1  0
 23 24  1  0
 24 25  1  0
 25 26  1  0
 26 27  1  0
 27 28  3  0
 26 22  1  0
  1 29  1  0
  1 30  1  0
  1 31  1  0
  2 32  1  0
  3 33  1  0
  3 34  1  0
  3 35  1  0
  4 36  1  0
  4 37  1  0
  5 38  1  6
  6 39  1  0
 10 40  1  0
 10 41  1  0
 10 42  1  0
 11 43  1  0
 11 44  1  0
 11 45  1  0
 12 46  1  0
 12 47  1  0
 12 48  1  0
 15 49  1  0
 16 50  1  1
 17 51  1  0
 18 52  1  0
 18 53  1  0
 18 54  1  0
 19 55  1  0
 19 56  1  0
 19 57  1  0
 23 58  1  0
 23 59  1  0
 24 60  1  0
 24 61  1  0
 25 62  1  0
 25 63  1  0
 26 64  1  1
M  END
$$$$
[H]Oc1c([H])c([H])c(C([H])([H])[C@]([H])(C(=O)N2C([H])([H])C([H])([H])C([H])([H])[C@@]2([H])C(=O)N([H])[C@]([H])(C(=O)N([H])[H])C([H])([H])[H])N([H])C(=O)[C@@]2([H])N(C(=O)[C@@]([H])(N([H])[H])C([H])([H])c3c([H])c([H])c([H])c([H])c3[H])C([H])([H])C([H])([H])C2([H])[H])c([H])c1[H]
     RDKit          3D

 83 86  0  0  0  0  0  0  0  0999 V2000
   -7.4822   -3.0581   -1.0859 C   0  0  0  0  0  0  0  0  0  0  0  0
   -7.2545   -1.5583   -1.2482 C   0  0  2  0  0  0  0  0  0  0  0  0
   -6.5371   -1.0158   -0.1189 N   0  0  0  0  0  0  0  0  0  0  0  0
   -5.2596   -0.4284   -0.2189 C   0  0  0  0  0  0  0  0  0  0  0  0
   -4.7349   -0.3833   -1.3747 O   0  0  0  0  0  0  0  0  0  0  0  0
   -4.5933    0.1002    0.9983 C   0  0  2  0  0  0  0  0  0  0  0  0
   -5.3374    1.3185    1.4731 C   0  0  0  0  0  0  0  0  0  0  0  0
   -4.4716    2.5073    1.1315 C   0  0  0  0  0  0  0  0  0  0  0  0
   -3.4411    1.9339    0.2045 C   0  0  0  0  0  0  0  0  0  0  0  0
   -3.2406    0.5918    0.6779 N   0  0  0  0  0  0  0  0  0  0  0  0
   -2.0344   -0.1756    0.8053 C   0  0  0  0  0  0  0  0  0  0  0  0
   -2.2121   -1.3788    1.2281 O   0  0  0  0  0  0  0  0  0  0  0  0
   -0.6849    0.2833    0.5013 C   0  0  1  0  0  0  0  0  0  0  0  0
    0.1226    0.7116    1.7139 C   0  0  0  0  0  0  0  0  0  0  0  0
   -0.4492    1.8190    2.4831 C   0  0  0  0  0  0  0  0  0  0  0  0
   -1.2975    1.6113    3.5481 C   0  0  0  0  0  0  0  0  0  0  0  0
   -1.8199    2.6790    4.2791 C   0  0  0  0  0  0  0  0  0  0  0  0
   -1.5017    3.9824    3.9564 C   0  0  0  0  0  0  0  0  0  0  0  0
   -2.0379    5.0460    4.7043 O   0  0  0  0  0  0  0  0  0  0  0  0
   -0.6582    4.1984    2.8967 C   0  0  0  0  0  0  0  0  0  0  0  0
   -0.1453    3.1409    2.1788 C   0  0  0  0  0  0  0  0  0  0  0  0
    0.1136   -0.7899   -0.1118 N   0  0  0  0  0  0  0  0  0  0  0  0
    0.9406   -0.5800   -1.2573 C   0  0  0  0  0  0  0  0  0  0  0  0
    0.9773    0.5773   -1.7325 O   0  0  0  0  0  0  0  0  0  0  0  0
    1.6672   -1.6966   -1.7798 C   0  0  2  0  0  0  0  0  0  0  0  0
    1.3886   -3.0491   -1.2007 C   0  0  0  0  0  0  0  0  0  0  0  0
    2.4789   -3.8649   -1.9238 C   0  0  0  0  0  0  0  0  0  0  0  0
    3.4713   -2.8212   -2.4560 C   0  0  0  0  0  0  0  0  0  0  0  0
    3.1302   -1.6784   -1.6460 N   0  0  0  0  0  0  0  0  0  0  0  0
    3.9463   -0.8323   -0.9226 C   0  0  0  0  0  0  0  0  0  0  0  0
    3.3345    0.0972   -0.2466 O   0  0  0  0  0  0  0  0  0  0  0  0
    5.4031   -0.7897   -0.7699 C   0  0  1  0  0  0  0  0  0  0  0  0
    6.1806   -1.6334   -1.5961 N   0  0  0  0  0  0  0  0  0  0  0  0
    5.9454    0.6275   -0.9070 C   0  0  0  0  0  0  0  0  0  0  0  0
    7.4195    0.6457   -0.7382 C   0  0  0  0  0  0  0  0  0  0  0  0
    8.0032    0.8203    0.5044 C   0  0  0  0  0  0  0  0  0  0  0  0
    9.3821    0.8341    0.6613 C   0  0  0  0  0  0  0  0  0  0  0  0
   10.1799    0.6732   -0.4287 C   0  0  0  0  0  0  0  0  0  0  0  0
    9.6316    0.4972   -1.6768 C   0  0  0  0  0  0  0  0  0  0  0  0
    8.2537    0.4853   -1.8194 C   0  0  0  0  0  0  0  0  0  0  0  0
   -8.5761   -0.9015   -1.3555 C   0  0  0  0  0  0  0  0  0  0  0  0
   -9.5022   -1.2280   -2.3655 N   0  0  0  0  0  0  0  0  0  0  0  0
   -8.8920   -0.0172   -0.5177 O   0  0  0  0  0  0  0  0  0  0  0  0
   -6.7045   -3.6466   -1.6497 H   0  0  0  0  0  0  0  0  0  0  0  0
   -7.4890   -3.3474   -0.0051 H   0  0  0  0  0  0  0  0  0  0  0  0
   -8.4648   -3.2999   -1.5181 H   0  0  0  0  0  0  0  0  0  0  0  0
   -6.6926   -1.4356   -2.1998 H   0  0  0  0  0  0  0  0  0  0  0  0
   -6.9935   -1.0618    0.8145 H   0  0  0  0  0  0  0  0  0  0  0  0
   -4.5296   -0.6847    1.7905 H   0  0  0  0  0  0  0  0  0  0  0  0
   -5.5552    1.2742    2.5654 H   0  0  0  0  0  0  0  0  0  0  0  0
   -6.3175    1.4636    0.9482 H   0  0  0  0  0  0  0  0  0  0  0  0
   -5.0717    3.3151    0.6388 H   0  0  0  0  0  0  0  0  0  0  0  0
   -4.0305    2.8685    2.0849 H   0  0  0  0  0  0  0  0  0  0  0  0
   -2.5038    2.5327    0.1816 H   0  0  0  0  0  0  0  0  0  0  0  0
   -3.9167    1.9047   -0.8155 H   0  0  0  0  0  0  0  0  0  0  0  0
   -0.6839    1.1213   -0.1816 H   0  0  0  0  0  0  0  0  0  0  0  0
    1.0983    1.0938    1.2913 H   0  0  0  0  0  0  0  0  0  0  0  0
    0.4101   -0.1536    2.3407 H   0  0  0  0  0  0  0  0  0  0  0  0
   -1.5961    0.6160    3.8658 H   0  0  0  0  0  0  0  0  0  0  0  0
   -2.4895    2.5305    5.1190 H   0  0  0  0  0  0  0  0  0  0  0  0
   -1.4862    5.3534    5.5178 H   0  0  0  0  0  0  0  0  0  0  0  0
   -0.3923    5.2057    2.6172 H   0  0  0  0  0  0  0  0  0  0  0  0
    0.5294    3.3376    1.3375 H   0  0  0  0  0  0  0  0  0  0  0  0
    0.0276   -1.7124    0.3569 H   0  0  0  0  0  0  0  0  0  0  0  0
    1.5107   -1.7349   -2.8959 H   0  0  0  0  0  0  0  0  0  0  0  0
    1.6026   -3.0281   -0.1121 H   0  0  0  0  0  0  0  0  0  0  0  0
    0.3810   -3.4260   -1.4223 H   0  0  0  0  0  0  0  0  0  0  0  0
    1.9716   -4.3048   -2.7927 H   0  0  0  0  0  0  0  0  0  0  0  0
    2.9298   -4.5674   -1.2237 H   0  0  0  0  0  0  0  0  0  0  0  0
    4.4807   -3.1798   -2.4319 H   0  0  0  0  0  0  0  0  0  0  0  0
    3.2304   -2.6110   -3.5374 H   0  0  0  0  0  0  0  0  0  0  0  0
    5.5912   -1.1314    0.3063 H   0  0  0  0  0  0  0  0  0  0  0  0
    6.1832   -1.4568   -2.6003 H   0  0  0  0  0  0  0  0  0  0  0  0
    6.9945   -2.0892   -1.1774 H   0  0  0  0  0  0  0  0  0  0  0  0
    5.6713    1.1204   -1.8354 H   0  0  0  0  0  0  0  0  0  0  0  0
    5.5349    1.2008   -0.0244 H   0  0  0  0  0  0  0  0  0  0  0  0
    7.3935    0.9490    1.3727 H   0  0  0  0  0  0  0  0  0  0  0  0
    9.8488    0.9698    1.6360 H   0  0  0  0  0  0  0  0  0  0  0  0
   11.2473    0.6838   -0.3220 H   0  0  0  0  0  0  0  0  0  0  0  0
   10.3149    0.3733   -2.5066 H   0  0  0  0  0  0  0  0  0  0  0  0
    7.8439    0.3465   -2.8102 H   0  0  0  0  0  0  0  0  0  0  0  0
   -9.7750   -0.5137   -3.0622 H   0  0  0  0  0  0  0  0  0  0  0  0
   -9.9097   -2.1760   -2.4150 H   0  0  0  0  0  0  0  0  0  0  0  0
  1  2  1  0
  2  3  1  0
  3  4  1  0
  4  5  2  0
  4  6  1  0
  6  7  1  0
  7  8  1  0
  8  9  1  0
  9 10  1  0
 10 11  1  0
 11 12  2  0
 11 13  1  0
 13 14  1  0
 14 15  1  0
 15 16  2  0
 16 17  1  0
 17 18  2  0
 18 19  1  0
 18 20  1  0
 20 21  2  0
 13 22  1  0
 22 23  1  0
 23 24  2  0
 23 25  1  0
 25 26  1  0
 26 27  1  0
 27 28  1  0
 28 29  1  0
 29 30  1  0
 30 31  2  0
 30 32  1  0
 32 33  1  0
 32 34  1  0
 34 35  1  0
 35 36  2  0
 36 37  1  0
 37 38  2  0
 38 39  1  0
 39 40  2  0
  2 41  1  0
 41 42  1  0
 41 43  2  0
 10  6  1  0
 21 15  1  0
 29 25  1  0
 40 35  1  0
  1 44  1  0
  1 45  1  0
  1 46  1  0
  2 47  1  6
  3 48  1  0
  6 49  1  1
  7 50  1  0
  7 51  1  0
  8 52  1  0
  8 53  1  0
  9 54  1  0
  9 55  1  0
 13 56  1  6
 14 57  1  0
 14 58  1  0
 16 59  1  0
 17 60  1  0
 19 61  1  0
 20 62  1  0
 21 63  1  0
 22 64  1  0
 25 65  1  6
 26 66  1  0
 26 67  1  0
 27 68  1  0
 27 69  1  0
 28 70  1  0
 28 71  1  0
 32 72  1  1
 33 73  1  0
 33 74  1  0
 34 75  1  0
 34 76  1  0
 36 77  1  0
 37 78  1  0
 38 79  1  0
 39 80  1  0
 40 81  1  0
 42 82  1  0
 42 83  1  0
M  END
$$$$
[H]OC(=O)[C@@]([H])(N([H])C(=O)[C@@]([H])(N([H])C(=O)[C@@]([H])(N([H])C(=O)[C@@]([H])(N([H])C(=O)[C@@]([H])(N([H])C(=O)[C@@]([H])(N([H])C(=O)C([H])([H])[H])C([H])([H])C([H])(C([H])([H])[H])C([H])([H])[H])C([H])([H])c1c([H])c([H])c([H])c([H])c1[H])C([H])([H])C([H])(C([H])([H])[H])C([H])([H])[H])C([H])([H])C([H])(C([H])([H])[H])C([H])([H])[H])C([H])([H])C([H])(C([H])([H])[H])C([H])([H])[H])C([H])([H])C([H])(C([H])([H])[H])C([H])([H])[H]
     RDKit          3D

123123  0  0  0  0  0  0  0  0999 V2000
   11.0811   -2.0382   -0.9729 C   0  0  0  0  0  0  0  0  0  0  0  0
    9.6763   -1.7489   -1.2896 C   0  0  0  0  0  0  0  0  0  0  0  0
    9.3468   -1.4743   -2.4689 O   0  0  0  0  0  0  0  0  0  0  0  0
    8.6946   -1.7718   -0.2956 N   0  0  0  0  0  0  0  0  0  0  0  0
    7.2827   -1.4891   -0.5584 C   0  0  1  0  0  0  0  0  0  0  0  0
    6.6052   -2.8246   -0.2248 C   0  0  0  0  0  0  0  0  0  0  0  0
    5.1264   -2.8251   -0.3998 C   0  0  0  0  0  0  0  0  0  0  0  0
    4.6573   -4.2335    0.0038 C   0  0  0  0  0  0  0  0  0  0  0  0
    4.7962   -2.6630   -1.8636 C   0  0  0  0  0  0  0  0  0  0  0  0
    6.7381   -0.4643    0.3694 C   0  0  0  0  0  0  0  0  0  0  0  0
    7.2967   -0.2966    1.4888 O   0  0  0  0  0  0  0  0  0  0  0  0
    5.6273    0.3430    0.0601 N   0  0  0  0  0  0  0  0  0  0  0  0
    5.1158    1.3496    0.9771 C   0  0  1  0  0  0  0  0  0  0  0  0
    5.6617    2.6819    0.7670 C   0  0  0  0  0  0  0  0  0  0  0  0
    5.5855    3.4053   -0.4634 C   0  0  0  0  0  0  0  0  0  0  0  0
    6.5526    3.3363   -1.4743 C   0  0  0  0  0  0  0  0  0  0  0  0
    6.4794    4.0349   -2.6297 C   0  0  0  0  0  0  0  0  0  0  0  0
    5.4279    4.8606   -2.8641 C   0  0  0  0  0  0  0  0  0  0  0  0
    4.4421    4.9695   -1.9038 C   0  0  0  0  0  0  0  0  0  0  0  0
    4.5306    4.2444   -0.7201 C   0  0  0  0  0  0  0  0  0  0  0  0
    3.7975    1.1180    1.5078 C   0  0  0  0  0  0  0  0  0  0  0  0
    3.5728   -0.1130    1.8776 O   0  0  0  0  0  0  0  0  0  0  0  0
    2.6815    1.9373    1.7193 N   0  0  0  0  0  0  0  0  0  0  0  0
    1.4425    1.4435    2.3046 C   0  0  1  0  0  0  0  0  0  0  0  0
    0.7304    2.5206    3.0143 C   0  0  0  0  0  0  0  0  0  0  0  0
    1.3869    3.1763    4.1673 C   0  0  0  0  0  0  0  0  0  0  0  0
    2.6716    3.8737    3.9587 C   0  0  0  0  0  0  0  0  0  0  0  0
    0.4086    4.2273    4.7400 C   0  0  0  0  0  0  0  0  0  0  0  0
    0.5405    0.8601    1.2505 C   0  0  0  0  0  0  0  0  0  0  0  0
    0.9469    0.9446    0.0683 O   0  0  0  0  0  0  0  0  0  0  0  0
   -0.6877    0.2321    1.5087 N   0  0  0  0  0  0  0  0  0  0  0  0
   -1.5672   -0.3787    0.5894 C   0  0  1  0  0  0  0  0  0  0  0  0
   -1.8200   -1.8425    0.8910 C   0  0  0  0  0  0  0  0  0  0  0  0
   -0.6524   -2.7433    0.8839 C   0  0  0  0  0  0  0  0  0  0  0  0
    0.0921   -2.8130   -0.4282 C   0  0  0  0  0  0  0  0  0  0  0  0
    0.3480   -2.5394    1.9877 C   0  0  0  0  0  0  0  0  0  0  0  0
   -2.9238    0.2798    0.4622 C   0  0  0  0  0  0  0  0  0  0  0  0
   -3.1523    1.2643    1.1839 O   0  0  0  0  0  0  0  0  0  0  0  0
   -3.8689   -0.2100   -0.4303 N   0  0  0  0  0  0  0  0  0  0  0  0
   -5.1991    0.1827   -0.7509 C   0  0  1  0  0  0  0  0  0  0  0  0
   -5.3879    0.9770   -1.9759 C   0  0  0  0  0  0  0  0  0  0  0  0
   -4.9145    0.4229   -3.2658 C   0  0  0  0  0  0  0  0  0  0  0  0
   -5.2518    1.4475   -4.3580 C   0  0  0  0  0  0  0  0  0  0  0  0
   -5.5285   -0.8710   -3.7044 C   0  0  0  0  0  0  0  0  0  0  0  0
   -6.2066   -0.8495   -0.4836 C   0  0  0  0  0  0  0  0  0  0  0  0
   -5.9049   -1.8305    0.3170 O   0  0  0  0  0  0  0  0  0  0  0  0
   -7.5228   -0.9414   -0.9890 N   0  0  0  0  0  0  0  0  0  0  0  0
   -8.4591   -1.9785   -0.6240 C   0  0  1  0  0  0  0  0  0  0  0  0
   -9.8972   -1.5709   -0.6612 C   0  0  0  0  0  0  0  0  0  0  0  0
  -10.2791   -0.4487    0.2419 C   0  0  0  0  0  0  0  0  0  0  0  0
  -10.0288   -0.6941    1.6976 C   0  0  0  0  0  0  0  0  0  0  0  0
   -9.7367    0.8907   -0.1467 C   0  0  0  0  0  0  0  0  0  0  0  0
   -8.2507   -3.2770   -1.3270 C   0  0  0  0  0  0  0  0  0  0  0  0
   -9.1283   -4.3199   -1.0528 O   0  0  0  0  0  0  0  0  0  0  0  0
   -7.3416   -3.4505   -2.1291 O   0  0  0  0  0  0  0  0  0  0  0  0
   11.6997   -1.0972   -0.9034 H   0  0  0  0  0  0  0  0  0  0  0  0
   11.5666   -2.6035   -1.8200 H   0  0  0  0  0  0  0  0  0  0  0  0
   11.2146   -2.5600    0.0021 H   0  0  0  0  0  0  0  0  0  0  0  0
    8.9477   -2.0009    0.6869 H   0  0  0  0  0  0  0  0  0  0  0  0
    7.1646   -1.2798   -1.6163 H   0  0  0  0  0  0  0  0  0  0  0  0
    6.9675   -3.1423    0.7685 H   0  0  0  0  0  0  0  0  0  0  0  0
    7.0791   -3.5784   -0.9355 H   0  0  0  0  0  0  0  0  0  0  0  0
    4.6547   -2.0617    0.2089 H   0  0  0  0  0  0  0  0  0  0  0  0
    5.0505   -4.4550    1.0458 H   0  0  0  0  0  0  0  0  0  0  0  0
    3.5619   -4.2180    0.1031 H   0  0  0  0  0  0  0  0  0  0  0  0
    5.0644   -4.9916   -0.6621 H   0  0  0  0  0  0  0  0  0  0  0  0
    5.6666   -2.9327   -2.5079 H   0  0  0  0  0  0  0  0  0  0  0  0
    4.3897   -1.6632   -2.1074 H   0  0  0  0  0  0  0  0  0  0  0  0
    3.9837   -3.3905   -2.1393 H   0  0  0  0  0  0  0  0  0  0  0  0
    5.1064    0.2648   -0.8583 H   0  0  0  0  0  0  0  0  0  0  0  0
    5.7609    1.0192    1.9437 H   0  0  0  0  0  0  0  0  0  0  0  0
    5.2095    3.3496    1.5705 H   0  0  0  0  0  0  0  0  0  0  0  0
    6.7629    2.6777    1.0690 H   0  0  0  0  0  0  0  0  0  0  0  0
    7.3716    2.6907   -1.2904 H   0  0  0  0  0  0  0  0  0  0  0  0
    7.2598    3.9426   -3.3795 H   0  0  0  0  0  0  0  0  0  0  0  0
    5.3464    5.4202   -3.7714 H   0  0  0  0  0  0  0  0  0  0  0  0
    3.6142    5.6248   -2.0979 H   0  0  0  0  0  0  0  0  0  0  0  0
    3.6944    4.4122   -0.0280 H   0  0  0  0  0  0  0  0  0  0  0  0
    2.7110    2.9291    1.4585 H   0  0  0  0  0  0  0  0  0  0  0  0
    1.7873    0.5840    2.9489 H   0  0  0  0  0  0  0  0  0  0  0  0
    0.4577    3.3759    2.2961 H   0  0  0  0  0  0  0  0  0  0  0  0
   -0.2939    2.2098    3.3686 H   0  0  0  0  0  0  0  0  0  0  0  0
    1.5262    2.4218    4.9784 H   0  0  0  0  0  0  0  0  0  0  0  0
    2.5965    4.5897    3.0905 H   0  0  0  0  0  0  0  0  0  0  0  0
    3.5499    3.2333    3.7577 H   0  0  0  0  0  0  0  0  0  0  0  0
    2.8740    4.5428    4.8436 H   0  0  0  0  0  0  0  0  0  0  0  0
    0.6766    4.5429    5.7489 H   0  0  0  0  0  0  0  0  0  0  0  0
   -0.6436    3.9179    4.6005 H   0  0  0  0  0  0  0  0  0  0  0  0
    0.5372    5.1132    4.0576 H   0  0  0  0  0  0  0  0  0  0  0  0
   -0.9731    0.2408    2.5404 H   0  0  0  0  0  0  0  0  0  0  0  0
   -1.1394   -0.3229   -0.4373 H   0  0  0  0  0  0  0  0  0  0  0  0
   -2.5909   -2.2851    0.2100 H   0  0  0  0  0  0  0  0  0  0  0  0
   -2.3535   -1.8318    1.8925 H   0  0  0  0  0  0  0  0  0  0  0  0
   -1.0251   -3.8223    1.0291 H   0  0  0  0  0  0  0  0  0  0  0  0
    1.0484   -3.3567   -0.2030 H   0  0  0  0  0  0  0  0  0  0  0  0
    0.3672   -1.8469   -0.8493 H   0  0  0  0  0  0  0  0  0  0  0  0
   -0.4463   -3.4874   -1.1594 H   0  0  0  0  0  0  0  0  0  0  0  0
    0.6025   -3.5333    2.4650 H   0  0  0  0  0  0  0  0  0  0  0  0
   -0.0824   -1.9189    2.7774 H   0  0  0  0  0  0  0  0  0  0  0  0
    1.3050   -2.1242    1.5629 H   0  0  0  0  0  0  0  0  0  0  0  0
   -3.5389   -1.0651   -1.0153 H   0  0  0  0  0  0  0  0  0  0  0  0
   -5.4510    0.9828    0.0937 H   0  0  0  0  0  0  0  0  0  0  0  0
   -6.4877    1.2232   -2.1295 H   0  0  0  0  0  0  0  0  0  0  0  0
   -4.9344    2.0159   -1.8844 H   0  0  0  0  0  0  0  0  0  0  0  0
   -3.7909    0.3564   -3.3221 H   0  0  0  0  0  0  0  0  0  0  0  0
   -6.2832    1.8109   -4.1990 H   0  0  0  0  0  0  0  0  0  0  0  0
   -4.5173    2.2907   -4.3198 H   0  0  0  0  0  0  0  0  0  0  0  0
   -5.2409    0.9876   -5.3658 H   0  0  0  0  0  0  0  0  0  0  0  0
   -5.0269   -1.1596   -4.6754 H   0  0  0  0  0  0  0  0  0  0  0  0
   -5.2841   -1.7083   -3.0041 H   0  0  0  0  0  0  0  0  0  0  0  0
   -6.5925   -0.7675   -3.9352 H   0  0  0  0  0  0  0  0  0  0  0  0
   -7.8343   -0.2177   -1.6694 H   0  0  0  0  0  0  0  0  0  0  0  0
   -8.2441   -2.2777    0.4752 H   0  0  0  0  0  0  0  0  0  0  0  0
  -10.5240   -2.4576   -0.3447 H   0  0  0  0  0  0  0  0  0  0  0  0
  -10.2567   -1.3639   -1.6966 H   0  0  0  0  0  0  0  0  0  0  0  0
  -11.4089   -0.3441    0.1461 H   0  0  0  0  0  0  0  0  0  0  0  0
   -8.9750   -0.9606    1.8581 H   0  0  0  0  0  0  0  0  0  0  0  0
  -10.2007    0.2471    2.2545 H   0  0  0  0  0  0  0  0  0  0  0  0
  -10.6979   -1.4596    2.1370 H   0  0  0  0  0  0  0  0  0  0  0  0
   -9.7640    1.0809   -1.2432 H   0  0  0  0  0  0  0  0  0  0  0  0
  -10.4277    1.6799    0.2791 H   0  0  0  0  0  0  0  0  0  0  0  0
   -8.7398    1.1136    0.2726 H   0  0  0  0  0  0  0  0  0  0  0  0
   -9.0414   -4.9288   -0.2506 H   0  0  0  0  0  0  0  0  0  0  0  0
  1  2  1  0
  2  3  2  0
  2  4  1  0
  4  5  1  0
  5  6  1  0
  6  7  1  0
  7  8  1  0
  7  9  1  0
  5 10  1  0
 10 11  2  0
 10 12  1  0
 12 13  1  0
 13 14  1  0
 14 15  1  0
 15 16  2  0
 16 17  1  0
 17 18  2  0
 18 19  1  0
 19 20  2  0
 13 21  1  0
 21 22  2  0
 21 23  1  0
 23 24  1  0
 24 25  1  0
 25 26  1  0
 26 27  1  0
 26 28  1  0
 24 29  1  0
 29 30  2  0
 29 31  1  0
 31 32  1  0
 32 33  1  0
 33 34  1  0
 34 35  1  0
 34 36  1  0
 32 37  1  0
 37 38  2  0
 37 39  1  0
 39 40  1  0
 40 41  1  0
 41 42  1  0
 42 43  1  0
 42 44  1  0
 40 45  1  0
 45 46  2  0
 45 47  1  0
 47 48  1  0
 48 49  1  0
 49 50  1  0
 50 51  1  0
 50 52  1  0
 48 53  1  0
 53 54  1  0
 53 55  2  0
 20 15  1  0
  1 56  1  0
  1 57  1  0
  1 58  1  0
  4 59  1  0
  5 60  1  6
  6 61  1  0
  6 62  1  0
  7 63  1  0
  8 64  1  0
  8 65  1  0
  8 66  1  0
  9 67  1  0
  9 68  1  0
  9 69  1  0
 12 70  1  0
 13 71  1  1
 14 72  1  0
 14 73  1  0
 16 74  1  0
 17 75  1  0
 18 76  1  0
 19 77  1  0
 20 78  1  0
 23 79  1  0
 24 80  1  1
 25 81  1  0
 25 82  1  0
 26 83  1  0
 27 84  1  0
 27 85  1  0
 27 86  1  0
 28 87  1  0
 28 88  1  0
 28 89  1  0
 31 90  1  0
 32 91  1  6
 33 92  1  0
 33 93  1  0
 34 94  1  0
 35 95  1  0
 35 96  1  0
 35 97  1  0
 36 98  1  0
 36 99  1  0
 36100  1  0
 39101  1  0
 40102  1  1
 41103  1  0
 41104  1  0
 42105  1  0
 43106  1  0
 43107  1  0
 43108  1  0
 44109  1  0
 44110  1  0
 44111  1  0
 47112  1  0
 48113  1  1
 49114  1  0
 49115  1  0
 50116  1  0
 51117  1  0
 51118  1  0
 51119  1  0
 52120  1  0
 52121  1  0
 52122  1  0
 54123  1  0
M  END
$$$$
[H]c1nc(N([H])c2c([H])c([H])c(S(=O)(=O)C([H])([H])[H])c([H])c2[H])c2c([H])c(-c3c([H])c([H])c(N4C([H])([H])C([H])([H])N(C([H])([H])[H])C([H])([H])C4([H])[H])c([H])c3[H])sc2n1
     RDKit          3D

 58 62  0  0  0  0  0  0  0  0999 V2000
    7.9010   -1.8469    1.7510 C   0  0  0  0  0  0  0  0  0  0  0  0
    7.9818   -1.9951    0.3252 N   0  0  0  0  0  0  0  0  0  0  0  0
    7.9800   -0.7272   -0.3840 C   0  0  0  0  0  0  0  0  0  0  0  0
    6.7991    0.0568    0.0571 C   0  0  0  0  0  0  0  0  0  0  0  0
    5.5546   -0.6565   -0.0057 N   0  0  0  0  0  0  0  0  0  0  0  0
    5.5508   -2.0903   -0.0665 C   0  0  0  0  0  0  0  0  0  0  0  0
    6.8739   -2.7489   -0.1888 C   0  0  0  0  0  0  0  0  0  0  0  0
    4.3006    0.0200   -0.0077 C   0  0  0  0  0  0  0  0  0  0  0  0
    4.2037    1.3961    0.0533 C   0  0  0  0  0  0  0  0  0  0  0  0
    2.9798    2.0397    0.0506 C   0  0  0  0  0  0  0  0  0  0  0  0
    1.7977    1.3437   -0.0128 C   0  0  0  0  0  0  0  0  0  0  0  0
    1.8783   -0.0236   -0.0737 C   0  0  0  0  0  0  0  0  0  0  0  0
    3.1068   -0.6699   -0.0711 C   0  0  0  0  0  0  0  0  0  0  0  0
    0.5056    2.0655   -0.0134 C   0  0  0  0  0  0  0  0  0  0  0  0
   -0.7550    1.5333   -0.0714 C   0  0  0  0  0  0  0  0  0  0  0  0
   -1.7882    2.3974   -0.0585 C   0  0  0  0  0  0  0  0  0  0  0  0
   -3.1709    2.0859   -0.1091 C   0  0  0  0  0  0  0  0  0  0  0  0
   -3.5975    0.7518   -0.2143 N   0  0  0  0  0  0  0  0  0  0  0  0
   -4.9260    0.3499   -0.2356 C   0  0  0  0  0  0  0  0  0  0  0  0
   -5.2296   -0.8011   -0.9622 C   0  0  0  0  0  0  0  0  0  0  0  0
   -6.5107   -1.2682   -0.9973 C   0  0  0  0  0  0  0  0  0  0  0  0
   -7.5020   -0.5870   -0.3047 C   0  0  0  0  0  0  0  0  0  0  0  0
   -7.2302    0.5486    0.4190 C   0  0  0  0  0  0  0  0  0  0  0  0
   -5.9147    1.0012    0.4370 C   0  0  0  0  0  0  0  0  0  0  0  0
   -9.1404   -1.1812   -0.3482 S   0  0  0  0  0  0  0  0  0  0  0  0
   -9.3540   -2.3213    1.0120 C   0  0  0  0  0  0  0  0  0  0  0  0
   -9.3854   -1.9117   -1.6481 O   0  0  0  0  0  0  0  0  0  0  0  0
  -10.1135   -0.0561   -0.1653 O   0  0  0  0  0  0  0  0  0  0  0  0
   -4.0250    3.0868   -0.0848 N   0  0  0  0  0  0  0  0  0  0  0  0
   -3.7666    4.3837   -0.0178 C   0  0  0  0  0  0  0  0  0  0  0  0
   -2.4381    4.7062    0.0318 N   0  0  0  0  0  0  0  0  0  0  0  0
   -1.4974    3.7249    0.0108 C   0  0  0  0  0  0  0  0  0  0  0  0
    0.2059    3.7443    0.0566 S   0  0  0  0  0  0  0  0  0  0  0  0
    6.9339   -2.2544    2.1379 H   0  0  0  0  0  0  0  0  0  0  0  0
    8.7644   -2.4016    2.2162 H   0  0  0  0  0  0  0  0  0  0  0  0
    7.9734   -0.8195    2.1147 H   0  0  0  0  0  0  0  0  0  0  0  0
    7.9524   -0.9285   -1.4597 H   0  0  0  0  0  0  0  0  0  0  0  0
    8.8917   -0.1391   -0.1757 H   0  0  0  0  0  0  0  0  0  0  0  0
    6.9395    0.5674    1.0350 H   0  0  0  0  0  0  0  0  0  0  0  0
    6.6943    0.9133   -0.6746 H   0  0  0  0  0  0  0  0  0  0  0  0
    5.0083   -2.5046    0.8276 H   0  0  0  0  0  0  0  0  0  0  0  0
    4.8952   -2.3850   -0.9367 H   0  0  0  0  0  0  0  0  0  0  0  0
    7.0982   -2.9437   -1.2756 H   0  0  0  0  0  0  0  0  0  0  0  0
    6.8356   -3.7403    0.3250 H   0  0  0  0  0  0  0  0  0  0  0  0
    5.1425    1.9656    0.1051 H   0  0  0  0  0  0  0  0  0  0  0  0
    2.9304    3.1281    0.0995 H   0  0  0  0  0  0  0  0  0  0  0  0
    0.9469   -0.5916   -0.1246 H   0  0  0  0  0  0  0  0  0  0  0  0
    3.1436   -1.7563   -0.1196 H   0  0  0  0  0  0  0  0  0  0  0  0
   -0.8390    0.4192   -0.1252 H   0  0  0  0  0  0  0  0  0  0  0  0
   -2.8446   -0.0172   -0.2813 H   0  0  0  0  0  0  0  0  0  0  0  0
   -4.4597   -1.3162   -1.4906 H   0  0  0  0  0  0  0  0  0  0  0  0
   -6.8138   -2.1587   -1.5442 H   0  0  0  0  0  0  0  0  0  0  0  0
   -8.0079    1.0681    0.9522 H   0  0  0  0  0  0  0  0  0  0  0  0
   -5.7663    1.8975    1.0508 H   0  0  0  0  0  0  0  0  0  0  0  0
   -8.8068   -1.8834    1.8726 H   0  0  0  0  0  0  0  0  0  0  0  0
  -10.4466   -2.3372    1.2443 H   0  0  0  0  0  0  0  0  0  0  0  0
   -8.9791   -3.3222    0.7539 H   0  0  0  0  0  0  0  0  0  0  0  0
   -4.4609    5.1895    0.0016 H   0  0  0  0  0  0  0  0  0  0  0  0
  1  2  1  0
  2  3  1  0
  3  4  1  0
  4  5  1  0
  5  6  1  0
  6  7  1  0
  5  8  1  0
  8  9  2  0
  9 10  1  0
 10 11  2  0
 11 12  1  0
 12 13  2  0
 11 14  1  0
 14 15  2  0
 15 16  1  0
 16 17  2  0
 17 18  1  0
 18 19  1  0
 19 20  2  0
 20 21  1  0
 21 22  2  0
 22 23  1  0
 23 24  2  0
 22 25  1  0
 25 26  1  0
 25 27  2  0
 25 28  2  0
 17 29  1  0
 29 30  2  0
 30 31  1  0
 31 32  2  0
 32 33  1  0
  7  2  1  0
 13  8  1  0
 33 14  1  0
 32 16  1  0
 24 19  1  0
  1 34  1  0
  1 35  1  0
  1 36  1  0
  3 37  1  0
  3 38  1  0
  4 39  1  0
  4 40  1  0
  6 41  1  0
  6 42  1  0
  7 43  1  0
  7 44  1  0
  9 45  1  0
 10 46  1  0
 12 47  1  0
 13 48  1  0
 15 49  1  0
 18 50  1  0
 20 51  1  0
 21 52  1  0
 23 53  1  0
 24 54  1  0
 26 55  1  0
 26 56  1  0
 26 57  1  0
 30 58  1  0
M  END
$$$$
[H]ON([H])C(=O)[C@]1([H])N(S(=O)(=O)c2c([H])c([H])c(OC([H])([H])[H])c([H])c2[H])C([H])([H])[C@@]([H])(c2c([H])c([H])c(F)c(Cl)c2[H])C1([H])[H]
     RDKit          3D

 46 48  0  0  0  0  0  0  0  0999 V2000
    6.3508    2.0532   -0.4291 C   0  0  0  0  0  0  0  0  0  0  0  0
    5.9036    0.8048   -0.9055 O   0  0  0  0  0  0  0  0  0  0  0  0
    4.6806    0.2491   -0.5247 C   0  0  0  0  0  0  0  0  0  0  0  0
    4.2887   -0.9685   -1.0127 C   0  0  0  0  0  0  0  0  0  0  0  0
    3.0882   -1.5482   -0.6604 C   0  0  0  0  0  0  0  0  0  0  0  0
    2.2323   -0.9052    0.2117 C   0  0  0  0  0  0  0  0  0  0  0  0
    2.6293    0.3306    0.7056 C   0  0  0  0  0  0  0  0  0  0  0  0
    3.8311    0.8877    0.3383 C   0  0  0  0  0  0  0  0  0  0  0  0
    0.7126   -1.5769    0.7684 S   0  0  0  0  0  0  0  0  0  0  0  0
    0.9821   -2.9577    1.1880 O   0  0  0  0  0  0  0  0  0  0  0  0
    0.3026   -0.8083    2.0260 O   0  0  0  0  0  0  0  0  0  0  0  0
   -0.5332   -1.3553   -0.3827 N   0  0  0  0  0  0  0  0  0  0  0  0
   -0.7352    0.0868   -0.6191 C   0  0  0  0  0  0  0  0  0  0  0  0
   -1.7387    0.5103    0.3837 C   0  0  2  0  0  0  0  0  0  0  0  0
   -2.4294   -0.7350    0.8734 C   0  0  0  0  0  0  0  0  0  0  0  0
   -1.8194   -1.8077    0.0236 C   0  0  2  0  0  0  0  0  0  0  0  0
   -1.9186   -3.1234    0.7064 C   0  0  0  0  0  0  0  0  0  0  0  0
   -2.5610   -3.0341    1.8368 O   0  0  0  0  0  0  0  0  0  0  0  0
   -1.4247   -4.2650    0.2413 N   0  0  0  0  0  0  0  0  0  0  0  0
   -0.9480   -5.3672   -0.2076 O   0  0  0  0  0  0  0  0  0  0  0  0
   -2.6734    1.5352   -0.0971 C   0  0  0  0  0  0  0  0  0  0  0  0
   -3.3421    1.3624   -1.2819 C   0  0  0  0  0  0  0  0  0  0  0  0
   -4.2357    2.3315   -1.7552 C   0  0  0  0  0  0  0  0  0  0  0  0
   -4.4326    3.4785   -0.9913 C   0  0  0  0  0  0  0  0  0  0  0  0
   -5.3028    4.3995   -1.4911 F   0  0  0  0  0  0  0  0  0  0  0  0
   -3.7629    3.6529    0.1954 C   0  0  0  0  0  0  0  0  0  0  0  0
   -4.0293    5.1092    1.1204 Cl  0  0  0  0  0  0  0  0  0  0  0  0
   -2.8706    2.6733    0.6532 C   0  0  0  0  0  0  0  0  0  0  0  0
    5.5262    2.7984   -0.3454 H   0  0  0  0  0  0  0  0  0  0  0  0
    6.7527    1.8747    0.6103 H   0  0  0  0  0  0  0  0  0  0  0  0
    7.2024    2.4392   -1.0235 H   0  0  0  0  0  0  0  0  0  0  0  0
    4.9377   -1.5087   -1.7013 H   0  0  0  0  0  0  0  0  0  0  0  0
    2.7611   -2.5077   -1.0331 H   0  0  0  0  0  0  0  0  0  0  0  0
    1.9750    0.8455    1.3899 H   0  0  0  0  0  0  0  0  0  0  0  0
    4.1045    1.8732    0.7633 H   0  0  0  0  0  0  0  0  0  0  0  0
   -1.0938    0.1637   -1.6622 H   0  0  0  0  0  0  0  0  0  0  0  0
    0.2108    0.6519   -0.4626 H   0  0  0  0  0  0  0  0  0  0  0  0
   -1.1935    0.9486    1.2722 H   0  0  0  0  0  0  0  0  0  0  0  0
   -2.2338   -0.8584    1.9457 H   0  0  0  0  0  0  0  0  0  0  0  0
   -3.5234   -0.7549    0.6650 H   0  0  0  0  0  0  0  0  0  0  0  0
   -2.4016   -1.9598   -0.9404 H   0  0  0  0  0  0  0  0  0  0  0  0
   -1.8904   -4.9900    1.3044 H   0  0  0  0  0  0  0  0  0  0  0  0
   -1.1165   -5.4925   -1.1740 H   0  0  0  0  0  0  0  0  0  0  0  0
   -3.1661    0.4698   -1.8449 H   0  0  0  0  0  0  0  0  0  0  0  0
   -4.7416    2.1656   -2.6866 H   0  0  0  0  0  0  0  0  0  0  0  0
   -2.3541    2.8286    1.5890 H   0  0  0  0  0  0  0  0  0  0  0  0
  1  2  1  0
  2  3  1  0
  3  4  2  0
  4  5  1  0
  5  6  2  0
  6  7  1  0
  7  8  2  0
  6  9  1  0
  9 10  2  0
  9 11  2  0
  9 12  1  0
 12 13  1  0
 13 14  1  0
 14 15  1  0
 15 16  1  0
 16 17  1  0
 17 18  2  0
 17 19  1  0
 19 20  1  0
 14 21  1  0
 21 22  2  0
 22 23  1  0
 23 24  2  0
 24 25  1  0
 24 26  1  0
 26 27  1  0
 26 28  2  0
  8  3  1  0
 16 12  1  0
 28 21  1  0
  1 29  1  0
  1 30  1  0
  1 31  1  0
  4 32  1  0
  5 33  1  0
  7 34  1  0
  8 35  1  0
 13 36  1  0
 13 37  1  0
 14 38  1  1
 15 39  1  0
 15 40  1  0
 16 41  1  6
 19 42  1  0
 20 43  1  0
 22 44  1  0
 23 45  1  0
 28 46  1  0
M  END
$$$$
[H]N=C(N([H])[H])N([H])C([H])([H])C([H])([H])C([H])([H])[C@@]([H])(C(=O)N([H])[C@]([H])(C(=O)N1C([H])([H])C([H])([H])C([H])([H])[C@@]1([H])C(=O)N([H])[C@]([H])(C(=O)N([H])[C@]([H])(C(=O)N([H])[H])C([H])([H])c1c([H])c([H])c([H])c([H])c1[H])C([H])([H])C([H])(C([H])([H])[H])C([H])([H])[H])C([H])([H])c1c([H])c([H])c(O[H])c([H])c1[H])N([H])[H]
     RDKit          3D

101103  0  0  0  0  0  0  0  0999 V2000
   -3.3138   -3.7356   -2.5932 C   0  0  0  0  0  0  0  0  0  0  0  0
   -3.4617   -2.8432   -1.3450 C   0  0  0  0  0  0  0  0  0  0  0  0
   -4.7023   -3.3100   -0.6651 C   0  0  0  0  0  0  0  0  0  0  0  0
   -3.4224   -1.4464   -1.8072 C   0  0  0  0  0  0  0  0  0  0  0  0
   -3.5242   -0.3620   -0.8013 C   0  0  2  0  0  0  0  0  0  0  0  0
   -2.4803   -0.3829    0.1930 N   0  0  0  0  0  0  0  0  0  0  0  0
   -1.3777    0.4647    0.2783 C   0  0  0  0  0  0  0  0  0  0  0  0
   -1.2351    1.3490   -0.5834 O   0  0  0  0  0  0  0  0  0  0  0  0
   -0.3409    0.3936    1.3392 C   0  0  2  0  0  0  0  0  0  0  0  0
   -0.8906    0.8656    2.6755 C   0  0  0  0  0  0  0  0  0  0  0  0
   -0.9776    2.3683    2.5277 C   0  0  0  0  0  0  0  0  0  0  0  0
    0.1056    2.6466    1.5426 C   0  0  0  0  0  0  0  0  0  0  0  0
    0.6672    1.3720    1.0985 N   0  0  0  0  0  0  0  0  0  0  0  0
    2.0120    1.2981    0.5927 C   0  0  0  0  0  0  0  0  0  0  0  0
    2.6318    2.3717    0.3939 O   0  0  0  0  0  0  0  0  0  0  0  0
    2.7218    0.0284    0.2873 C   0  0  2  0  0  0  0  0  0  0  0  0
    2.9203   -0.8919    1.4196 C   0  0  0  0  0  0  0  0  0  0  0  0
    3.5831   -2.1410    0.9655 C   0  0  0  0  0  0  0  0  0  0  0  0
    2.7823   -3.1524    0.4155 C   0  0  0  0  0  0  0  0  0  0  0  0
    3.2809   -4.3638   -0.0032 C   0  0  0  0  0  0  0  0  0  0  0  0
    4.6237   -4.6271    0.1093 C   0  0  0  0  0  0  0  0  0  0  0  0
    5.1653   -5.8544   -0.3094 O   0  0  0  0  0  0  0  0  0  0  0  0
    5.4355   -3.6611    0.6425 C   0  0  0  0  0  0  0  0  0  0  0  0
    4.9139   -2.4321    1.0644 C   0  0  0  0  0  0  0  0  0  0  0  0
    3.9913    0.3949   -0.3043 N   0  0  0  0  0  0  0  0  0  0  0  0
    4.9984    1.1438    0.3522 C   0  0  0  0  0  0  0  0  0  0  0  0
    4.9197    1.5514    1.5388 O   0  0  0  0  0  0  0  0  0  0  0  0
    6.2784    1.5191   -0.3779 C   0  0  1  0  0  0  0  0  0  0  0  0
    6.8787    2.5528    0.4933 N   0  0  0  0  0  0  0  0  0  0  0  0
    7.1933    0.3411   -0.2957 C   0  0  0  0  0  0  0  0  0  0  0  0
    8.5145    0.4299   -0.9515 C   0  0  0  0  0  0  0  0  0  0  0  0
    9.3655    1.5504   -0.4592 C   0  0  0  0  0  0  0  0  0  0  0  0
   10.6785    1.4964   -1.1096 N   0  0  0  0  0  0  0  0  0  0  0  0
   11.6314    2.4834   -0.7817 C   0  0  0  0  0  0  0  0  0  0  0  0
   12.3182    3.1728   -1.8065 N   0  0  0  0  0  0  0  0  0  0  0  0
   11.8920    2.7690    0.4412 N   0  0  0  0  0  0  0  0  0  0  0  0
   -4.8405   -0.1585   -0.1798 C   0  0  0  0  0  0  0  0  0  0  0  0
   -4.9530   -0.0230    1.0614 O   0  0  0  0  0  0  0  0  0  0  0  0
   -6.0298   -0.1090   -0.9447 N   0  0  0  0  0  0  0  0  0  0  0  0
   -7.3497    0.0851   -0.3102 C   0  0  1  0  0  0  0  0  0  0  0  0
   -7.8143    1.4972   -0.5693 C   0  0  0  0  0  0  0  0  0  0  0  0
   -9.1165    1.8484    0.0098 C   0  0  0  0  0  0  0  0  0  0  0  0
   -9.1791    2.2985    1.3347 C   0  0  0  0  0  0  0  0  0  0  0  0
  -10.3839    2.6491    1.8707 C   0  0  0  0  0  0  0  0  0  0  0  0
  -11.5815    2.5869    1.1720 C   0  0  0  0  0  0  0  0  0  0  0  0
  -11.4812    2.1406   -0.1244 C   0  0  0  0  0  0  0  0  0  0  0  0
  -10.2867    1.7768   -0.7060 C   0  0  0  0  0  0  0  0  0  0  0  0
   -8.2729   -0.9727   -0.7170 C   0  0  0  0  0  0  0  0  0  0  0  0
   -9.5823   -1.2042   -0.2434 N   0  0  0  0  0  0  0  0  0  0  0  0
   -7.8934   -1.8213   -1.6063 O   0  0  0  0  0  0  0  0  0  0  0  0
   -2.6604   -3.1794   -3.3028 H   0  0  0  0  0  0  0  0  0  0  0  0
   -4.2691   -4.0396   -3.0126 H   0  0  0  0  0  0  0  0  0  0  0  0
   -2.7181   -4.6588   -2.3160 H   0  0  0  0  0  0  0  0  0  0  0  0
   -2.6059   -3.1340   -0.6897 H   0  0  0  0  0  0  0  0  0  0  0  0
   -4.4641   -4.3505   -0.2784 H   0  0  0  0  0  0  0  0  0  0  0  0
   -5.5200   -3.5229   -1.4126 H   0  0  0  0  0  0  0  0  0  0  0  0
   -5.0368   -2.7599    0.2035 H   0  0  0  0  0  0  0  0  0  0  0  0
   -4.2466   -1.2804   -2.5526 H   0  0  0  0  0  0  0  0  0  0  0  0
   -2.4881   -1.2837   -2.3907 H   0  0  0  0  0  0  0  0  0  0  0  0
   -3.3234    0.5907   -1.3946 H   0  0  0  0  0  0  0  0  0  0  0  0
   -2.5636   -1.1315    0.9455 H   0  0  0  0  0  0  0  0  0  0  0  0
   -0.0102   -0.6583    1.3914 H   0  0  0  0  0  0  0  0  0  0  0  0
   -1.8128    0.3901    2.9841 H   0  0  0  0  0  0  0  0  0  0  0  0
   -0.1102    0.6520    3.4271 H   0  0  0  0  0  0  0  0  0  0  0  0
   -1.9778    2.6635    2.1904 H   0  0  0  0  0  0  0  0  0  0  0  0
   -0.7167    2.8786    3.4887 H   0  0  0  0  0  0  0  0  0  0  0  0
   -0.2958    3.1578    0.6505 H   0  0  0  0  0  0  0  0  0  0  0  0
    0.9173    3.2947    1.9694 H   0  0  0  0  0  0  0  0  0  0  0  0
    2.0951   -0.4643   -0.5131 H   0  0  0  0  0  0  0  0  0  0  0  0
    2.0781   -1.0879    2.0868 H   0  0  0  0  0  0  0  0  0  0  0  0
    3.6882   -0.4211    2.1343 H   0  0  0  0  0  0  0  0  0  0  0  0
    1.7044   -2.9715    0.3113 H   0  0  0  0  0  0  0  0  0  0  0  0
    2.6558   -5.1389   -0.4263 H   0  0  0  0  0  0  0  0  0  0  0  0
    6.1384   -6.0127   -0.2142 H   0  0  0  0  0  0  0  0  0  0  0  0
    6.4900   -3.8646    0.7319 H   0  0  0  0  0  0  0  0  0  0  0  0
    5.5619   -1.6967    1.4796 H   0  0  0  0  0  0  0  0  0  0  0  0
    4.2046    0.0928   -1.2974 H   0  0  0  0  0  0  0  0  0  0  0  0
    6.0871    1.8864   -1.3819 H   0  0  0  0  0  0  0  0  0  0  0  0
    6.8022    2.2890    1.4916 H   0  0  0  0  0  0  0  0  0  0  0  0
    6.2920    3.4238    0.3606 H   0  0  0  0  0  0  0  0  0  0  0  0
    6.6047   -0.5415   -0.6866 H   0  0  0  0  0  0  0  0  0  0  0  0
    7.3368    0.0664    0.7983 H   0  0  0  0  0  0  0  0  0  0  0  0
    9.0326   -0.5631   -0.7738 H   0  0  0  0  0  0  0  0  0  0  0  0
    8.3453    0.5111   -2.0641 H   0  0  0  0  0  0  0  0  0  0  0  0
    8.8928    2.5094   -0.8325 H   0  0  0  0  0  0  0  0  0  0  0  0
    9.4250    1.6229    0.6316 H   0  0  0  0  0  0  0  0  0  0  0  0
   10.8677    0.7498   -1.7799 H   0  0  0  0  0  0  0  0  0  0  0  0
   11.7921    3.8936   -2.3531 H   0  0  0  0  0  0  0  0  0  0  0  0
   13.3152    2.9600   -2.0009 H   0  0  0  0  0  0  0  0  0  0  0  0
   11.4203    2.2935    1.2335 H   0  0  0  0  0  0  0  0  0  0  0  0
   -5.9425   -0.2140   -1.9755 H   0  0  0  0  0  0  0  0  0  0  0  0
   -7.1597    0.0520    0.7837 H   0  0  0  0  0  0  0  0  0  0  0  0
   -7.0320    2.1666   -0.1111 H   0  0  0  0  0  0  0  0  0  0  0  0
   -7.7894    1.7509   -1.6521 H   0  0  0  0  0  0  0  0  0  0  0  0
   -8.2535    2.3568    1.9009 H   0  0  0  0  0  0  0  0  0  0  0  0
  -10.4045    2.9941    2.8988 H   0  0  0  0  0  0  0  0  0  0  0  0
  -12.5345    2.8708    1.6146 H   0  0  0  0  0  0  0  0  0  0  0  0
  -12.3772    2.0668   -0.7355 H   0  0  0  0  0  0  0  0  0  0  0  0
  -10.2580    1.4220   -1.7551 H   0  0  0  0  0  0  0  0  0  0  0  0
  -10.4201   -1.4018   -0.8380 H   0  0  0  0  0  0  0  0  0  0  0  0
   -9.7682   -1.1822    0.7984 H   0  0  0  0  0  0  0  0  0  0  0  0
  1  2  1  0
  2  3  1  0
  2  4  1  0
  4  5  1  0
  5  6  1  0
  6  7  1  0
  7  8  2  0
  7  9  1  0
  9 10  1  0
 10 11  1  0
 11 12  1  0
 12 13  1  0
 13 14  1  0
 14 15  2  0
 14 16  1  0
 16 17  1  0
 17 18  1  0
 18 19  2  0
 19 20  1  0
 20 21  2  0
 21 22  1  0
 21 23  1  0
 23 24  2  0
 16 25  1  0
 25 26  1  0
 26 27  2  0
 26 28  1  0
 28 29  1  0
 28 30  1  0
 30 31  1  0
 31 32  1  0
 32 33  1  0
 33 34  1  0
 34 35  1  0
 34 36  2  3
  5 37  1  0
 37 38  2  0
 37 39  1  0
 39 40  1  0
 40 41  1  0
 41 42  1  0
 42 43  2  0
 43 44  1  0
 44 45  2  0
 45 46  1  0
 46 47  2  0
 40 48  1  0
 48 49  1  0
 48 50  2  0
 13  9  1  0
 24 18  1  0
 47 42  1  0
  1 51  1  0
  1 52  1  0
  1 53  1  0
  2 54  1  0
  3 55  1  0
  3 56  1  0
  3 57  1  0
  4 58  1  0
  4 59  1  0
  5 60  1  6
  6 61  1  0
  9 62  1  1
 10 63  1  0
 10 64  1  0
 11 65  1  0
 11 66  1  0
 12 67  1  0
 12 68  1  0
 16 69  1  6
 17 70  1  0
 17 71  1  0
 19 72  1  0
 20 73  1  0
 22 74  1  0
 23 75  1  0
 24 76  1  0
 25 77  1  0
 28 78  1  6
 29 79  1  0
 29 80  1  0
 30 81  1  0
 30 82  1  0
 31 83  1  0
 31 84  1  0
 32 85  1  0
 32 86  1  0
 33 87  1  0
 35 88  1  0
 35 89  1  0
 36 90  1  0
 39 91  1  0
 40 92  1  1
 41 93  1  0
 41 94  1  0
 43 95  1  0
 44 96  1  0
 45 97  1  0
 46 98  1  0
 47 99  1  0
 49100  1  0
 49101  1  0
M  END
$$$$
[H]OC([H])([H])[C@]1([H])O[C@@]([H])(n2c([H])nc3c(N([H])[H])nc([H])nc32)[C@]([H])(O[H])[C@@]([H])(O[H])[C@]1([H])O[H]
     RDKit          3D

 36 38  0  0  0  0  0  0  0  0999 V2000
    5.5258    1.0419    0.5329 N   0  0  0  0  0  0  0  0  0  0  0  0
    4.5013    0.1887    0.0616 C   0  0  0  0  0  0  0  0  0  0  0  0
    4.7820   -1.0413   -0.3625 N   0  0  0  0  0  0  0  0  0  0  0  0
    3.8548   -1.8829   -0.8153 C   0  0  0  0  0  0  0  0  0  0  0  0
    2.5806   -1.4543   -0.8384 N   0  0  0  0  0  0  0  0  0  0  0  0
    2.2206   -0.2243   -0.4257 C   0  0  0  0  0  0  0  0  0  0  0  0
    1.0174    0.3895   -0.3685 N   0  0  0  0  0  0  0  0  0  0  0  0
    1.2445    1.6106    0.1260 C   0  0  0  0  0  0  0  0  0  0  0  0
    2.5657    1.7607    0.3746 N   0  0  0  0  0  0  0  0  0  0  0  0
    3.2041    0.6274    0.0390 C   0  0  0  0  0  0  0  0  0  0  0  0
   -0.2605   -0.2122   -0.7816 C   0  0  2  0  0  0  0  0  0  0  0  0
   -1.1178    0.7645   -1.0739 O   0  0  0  0  0  0  0  0  0  0  0  0
   -2.1592    1.0541   -0.2802 C   0  0  1  0  0  0  0  0  0  0  0  0
   -3.4430    0.8555   -1.0594 C   0  0  0  0  0  0  0  0  0  0  0  0
   -4.5837    1.1313   -0.3251 O   0  0  0  0  0  0  0  0  0  0  0  0
   -2.2511    0.3438    1.0205 C   0  0  1  0  0  0  0  0  0  0  0  0
   -3.4311    0.5863    1.6754 O   0  0  0  0  0  0  0  0  0  0  0  0
   -2.0404   -1.1418    0.7214 C   0  0  2  0  0  0  0  0  0  0  0  0
   -2.2068   -1.9085    1.8678 O   0  0  0  0  0  0  0  0  0  0  0  0
   -0.6241   -1.2284    0.2219 C   0  0  1  0  0  0  0  0  0  0  0  0
   -0.4419   -2.5470   -0.2538 O   0  0  0  0  0  0  0  0  0  0  0  0
    5.4618    2.0773    0.4507 H   0  0  0  0  0  0  0  0  0  0  0  0
    6.3867    0.6613    0.9821 H   0  0  0  0  0  0  0  0  0  0  0  0
    4.1519   -2.8815   -1.1495 H   0  0  0  0  0  0  0  0  0  0  0  0
    0.4570    2.3457    0.2894 H   0  0  0  0  0  0  0  0  0  0  0  0
    0.0028   -0.7603   -1.7371 H   0  0  0  0  0  0  0  0  0  0  0  0
   -2.1280    2.1596   -0.0469 H   0  0  0  0  0  0  0  0  0  0  0  0
   -3.5468   -0.1995   -1.4188 H   0  0  0  0  0  0  0  0  0  0  0  0
   -3.4778    1.5518   -1.9474 H   0  0  0  0  0  0  0  0  0  0  0  0
   -4.5788    2.0673    0.0262 H   0  0  0  0  0  0  0  0  0  0  0  0
   -1.3548    0.6636    1.6313 H   0  0  0  0  0  0  0  0  0  0  0  0
   -3.3162    1.4248    2.2161 H   0  0  0  0  0  0  0  0  0  0  0  0
   -2.7053   -1.4869   -0.0836 H   0  0  0  0  0  0  0  0  0  0  0  0
   -3.0719   -2.3833    1.7773 H   0  0  0  0  0  0  0  0  0  0  0  0
    0.0313   -1.1787    1.1406 H   0  0  0  0  0  0  0  0  0  0  0  0
   -1.2490   -2.7745   -0.7872 H   0  0  0  0  0  0  0  0  0  0  0  0
  1  2  1  0
  2  3  2  0
  3  4  1  0
  4  5  2  0
  5  6  1  0
  6  7  1  0
  7  8  1  0
  8  9  2  0
  9 10  1  0
  7 11  1  0
 11 12  1  0
 12 13  1  0
 13 14  1  0
 14 15  1  0
 13 16  1  0
 16 17  1  0
 16 18  1  0
 18 19  1  0
 18 20  1  0
 20 21  1  0
 10  2  1  0
 20 11  1  0
 10  6  2  0
  1 22  1  0
  1 23  1  0
  4 24  1  0
  8 25  1  0
 11 26  1  6
 13 27  1  1
 14 28  1  0
 14 29  1  0
 15 30  1  0
 16 31  1  1
 17 32  1  0
 18 33  1  6
 19 34  1  0
 20 35  1  1
 21 36  1  0
M  END
$$$$
[H]OC(=O)C([H])([H])[C@@]([H])(C(=O)N([H])[C@]([H])(C(=O)N1C([H])([H])C([H])([H])C([H])([H])[C@@]1([H])C(=O)N([H])[C@@]([H])(C(=O)N([H])[C@]([H])(C(=O)N([H])[H])C([H])([H])C([H])(C([H])([H])[H])C([H])([H])[H])C([H])([H])c1c([H])c([H])c(O[H])c([H])c1[H])C([H])([H])c1c([H])c([H])c([H])c([H])c1[H])N([H])C(=O)[C@]([H])(N([H])C(=O)OC([H])([H])c1c([H])c([H])c([H])c([H])c1[H])C([H])([H])c1c([H])c([H])c([H])c([H])c1[H]
     RDKit          3D

127131  0  0  0  0  0  0  0  0999 V2000
   -8.3949    1.0974   -3.8931 C   0  0  0  0  0  0  0  0  0  0  0  0
   -9.3733    1.5944   -2.8310 C   0  0  0  0  0  0  0  0  0  0  0  0
  -10.7193    0.9253   -3.1843 C   0  0  0  0  0  0  0  0  0  0  0  0
   -8.9945    1.1434   -1.4656 C   0  0  0  0  0  0  0  0  0  0  0  0
   -7.6571    1.5740   -0.9714 C   0  0  2  0  0  0  0  0  0  0  0  0
   -7.4029    1.0545    0.3840 N   0  0  0  0  0  0  0  0  0  0  0  0
   -6.4100    0.1159    0.6791 C   0  0  0  0  0  0  0  0  0  0  0  0
   -5.7002   -0.3046   -0.2921 O   0  0  0  0  0  0  0  0  0  0  0  0
   -6.1717   -0.3744    2.0678 C   0  0  1  0  0  0  0  0  0  0  0  0
   -7.1915   -1.2918    2.6131 C   0  0  0  0  0  0  0  0  0  0  0  0
   -8.5719   -0.8570    2.7052 C   0  0  0  0  0  0  0  0  0  0  0  0
   -9.4815   -1.1566    1.6834 C   0  0  0  0  0  0  0  0  0  0  0  0
  -10.7991   -0.7631    1.7619 C   0  0  0  0  0  0  0  0  0  0  0  0
  -11.2416   -0.0595    2.8660 C   0  0  0  0  0  0  0  0  0  0  0  0
  -12.5708    0.3426    2.9591 O   0  0  0  0  0  0  0  0  0  0  0  0
  -10.3558    0.2361    3.8664 C   0  0  0  0  0  0  0  0  0  0  0  0
   -9.0458   -0.1590    3.7804 C   0  0  0  0  0  0  0  0  0  0  0  0
   -4.9136   -1.1440    2.0472 N   0  0  0  0  0  0  0  0  0  0  0  0
   -3.6462   -0.5751    2.2011 C   0  0  0  0  0  0  0  0  0  0  0  0
   -3.5437    0.6600    2.3539 O   0  0  0  0  0  0  0  0  0  0  0  0
   -2.3891   -1.3896    2.1894 C   0  0  2  0  0  0  0  0  0  0  0  0
   -2.1005   -1.8590    3.6329 C   0  0  0  0  0  0  0  0  0  0  0  0
   -1.6118   -0.5690    4.2555 C   0  0  0  0  0  0  0  0  0  0  0  0
   -0.9061    0.1274    3.1424 C   0  0  0  0  0  0  0  0  0  0  0  0
   -1.2115   -0.6412    1.8991 N   0  0  0  0  0  0  0  0  0  0  0  0
   -0.3533   -0.5014    0.7902 C   0  0  0  0  0  0  0  0  0  0  0  0
    0.6024    0.3677    0.9818 O   0  0  0  0  0  0  0  0  0  0  0  0
   -0.3411   -1.1473   -0.5237 C   0  0  2  0  0  0  0  0  0  0  0  0
   -0.7967   -2.5424   -0.6495 C   0  0  0  0  0  0  0  0  0  0  0  0
   -0.7460   -3.0994   -2.0331 C   0  0  0  0  0  0  0  0  0  0  0  0
    0.3005   -3.8206   -2.5176 C   0  0  0  0  0  0  0  0  0  0  0  0
    0.3503   -4.3314   -3.7911 C   0  0  0  0  0  0  0  0  0  0  0  0
   -0.7035   -4.1157   -4.6440 C   0  0  0  0  0  0  0  0  0  0  0  0
   -1.7815   -3.3898   -4.1887 C   0  0  0  0  0  0  0  0  0  0  0  0
   -1.8079   -2.8800   -2.8859 C   0  0  0  0  0  0  0  0  0  0  0  0
    0.8105   -0.7966   -1.3202 N   0  0  0  0  0  0  0  0  0  0  0  0
    2.1523   -0.8990   -0.9008 C   0  0  0  0  0  0  0  0  0  0  0  0
    2.3812   -1.3672    0.2636 O   0  0  0  0  0  0  0  0  0  0  0  0
    3.3005   -0.4890   -1.7178 C   0  0  2  0  0  0  0  0  0  0  0  0
    3.5883   -1.4103   -2.9012 C   0  0  0  0  0  0  0  0  0  0  0  0
    3.9288   -2.7866   -2.4799 C   0  0  0  0  0  0  0  0  0  0  0  0
    4.2368   -3.7814   -3.4307 O   0  0  0  0  0  0  0  0  0  0  0  0
    3.9767   -3.1885   -1.2916 O   0  0  0  0  0  0  0  0  0  0  0  0
    4.5249   -0.4272   -0.9069 N   0  0  0  0  0  0  0  0  0  0  0  0
    5.4948    0.5638   -1.1374 C   0  0  0  0  0  0  0  0  0  0  0  0
    5.3480    1.4359   -2.0573 O   0  0  0  0  0  0  0  0  0  0  0  0
    6.7494    0.6729   -0.3446 C   0  0  1  0  0  0  0  0  0  0  0  0
    7.0443   -0.5754    0.4340 C   0  0  0  0  0  0  0  0  0  0  0  0
    8.2859   -0.4164    1.2048 C   0  0  0  0  0  0  0  0  0  0  0  0
    8.2424    0.1184    2.4708 C   0  0  0  0  0  0  0  0  0  0  0  0
    9.3981    0.2776    3.2288 C   0  0  0  0  0  0  0  0  0  0  0  0
   10.6065   -0.1040    2.7109 C   0  0  0  0  0  0  0  0  0  0  0  0
   10.6719   -0.6408    1.4488 C   0  0  0  0  0  0  0  0  0  0  0  0
    9.4968   -0.7946    0.6959 C   0  0  0  0  0  0  0  0  0  0  0  0
    7.8812    1.0379   -1.1320 N   0  0  0  0  0  0  0  0  0  0  0  0
    8.7361    2.1556   -0.9244 C   0  0  0  0  0  0  0  0  0  0  0  0
    8.5083    2.9343    0.0507 O   0  0  0  0  0  0  0  0  0  0  0  0
    9.8010    2.4395   -1.7271 O   0  0  0  0  0  0  0  0  0  0  0  0
   10.6957    3.4941   -1.6172 C   0  0  0  0  0  0  0  0  0  0  0  0
   11.4254    3.4463   -0.3372 C   0  0  0  0  0  0  0  0  0  0  0  0
   12.4011    2.5027   -0.1142 C   0  0  0  0  0  0  0  0  0  0  0  0
   13.1019    2.4834    1.0853 C   0  0  0  0  0  0  0  0  0  0  0  0
   12.8288    3.4048    2.0599 C   0  0  0  0  0  0  0  0  0  0  0  0
   11.8639    4.3573    1.8699 C   0  0  0  0  0  0  0  0  0  0  0  0
   11.1719    4.3617    0.6633 C   0  0  0  0  0  0  0  0  0  0  0  0
   -7.4356    3.0363   -0.9419 C   0  0  0  0  0  0  0  0  0  0  0  0
   -7.5707    3.8981   -2.0401 N   0  0  0  0  0  0  0  0  0  0  0  0
   -7.0900    3.5872    0.1672 O   0  0  0  0  0  0  0  0  0  0  0  0
   -7.7350    0.3611   -3.4007 H   0  0  0  0  0  0  0  0  0  0  0  0
   -8.9026    0.5816   -4.7337 H   0  0  0  0  0  0  0  0  0  0  0  0
   -7.8208    1.9396   -4.3481 H   0  0  0  0  0  0  0  0  0  0  0  0
   -9.5404    2.6530   -2.9832 H   0  0  0  0  0  0  0  0  0  0  0  0
  -11.2407    1.5583   -3.9581 H   0  0  0  0  0  0  0  0  0  0  0  0
  -11.3874    0.9039   -2.3046 H   0  0  0  0  0  0  0  0  0  0  0  0
  -10.5793   -0.0629   -3.6284 H   0  0  0  0  0  0  0  0  0  0  0  0
   -9.7571    1.5815   -0.7545 H   0  0  0  0  0  0  0  0  0  0  0  0
   -9.1537    0.0420   -1.3746 H   0  0  0  0  0  0  0  0  0  0  0  0
   -6.8961    1.1348   -1.6590 H   0  0  0  0  0  0  0  0  0  0  0  0
   -8.0017    1.4452    1.1296 H   0  0  0  0  0  0  0  0  0  0  0  0
   -5.9805    0.5236    2.6627 H   0  0  0  0  0  0  0  0  0  0  0  0
   -7.2120   -2.2604    2.0044 H   0  0  0  0  0  0  0  0  0  0  0  0
   -6.8078   -1.6920    3.6154 H   0  0  0  0  0  0  0  0  0  0  0  0
   -9.1948   -1.7049    0.7948 H   0  0  0  0  0  0  0  0  0  0  0  0
  -11.5279   -0.9762    0.9939 H   0  0  0  0  0  0  0  0  0  0  0  0
  -12.8781    1.2377    2.5992 H   0  0  0  0  0  0  0  0  0  0  0  0
  -10.6731    0.7851    4.7395 H   0  0  0  0  0  0  0  0  0  0  0  0
   -8.3696    0.0872    4.5838 H   0  0  0  0  0  0  0  0  0  0  0  0
   -4.9857   -2.1611    1.9087 H   0  0  0  0  0  0  0  0  0  0  0  0
   -2.6154   -2.2716    1.6015 H   0  0  0  0  0  0  0  0  0  0  0  0
   -1.2459   -2.5472    3.5585 H   0  0  0  0  0  0  0  0  0  0  0  0
   -2.9591   -2.3113    4.1111 H   0  0  0  0  0  0  0  0  0  0  0  0
   -0.8474   -0.7712    5.0637 H   0  0  0  0  0  0  0  0  0  0  0  0
   -2.4414    0.0051    4.7031 H   0  0  0  0  0  0  0  0  0  0  0  0
   -1.2906    1.1270    3.0044 H   0  0  0  0  0  0  0  0  0  0  0  0
    0.2083    0.1147    3.2805 H   0  0  0  0  0  0  0  0  0  0  0  0
   -1.1936   -0.5336   -1.0702 H   0  0  0  0  0  0  0  0  0  0  0  0
   -1.8498   -2.6936   -0.2657 H   0  0  0  0  0  0  0  0  0  0  0  0
   -0.1588   -3.2042   -0.0094 H   0  0  0  0  0  0  0  0  0  0  0  0
    1.1374   -4.0060   -1.8585 H   0  0  0  0  0  0  0  0  0  0  0  0
    1.2120   -4.8979   -4.1272 H   0  0  0  0  0  0  0  0  0  0  0  0
   -0.6917   -4.5136   -5.6738 H   0  0  0  0  0  0  0  0  0  0  0  0
   -2.6048   -3.2272   -4.8659 H   0  0  0  0  0  0  0  0  0  0  0  0
   -2.6701   -2.3136   -2.5586 H   0  0  0  0  0  0  0  0  0  0  0  0
    0.6955   -0.4248   -2.3196 H   0  0  0  0  0  0  0  0  0  0  0  0
    3.1495    0.5010   -2.1536 H   0  0  0  0  0  0  0  0  0  0  0  0
    2.7382   -1.3747   -3.5980 H   0  0  0  0  0  0  0  0  0  0  0  0
    4.4652   -0.9989   -3.4382 H   0  0  0  0  0  0  0  0  0  0  0  0
    4.2941   -3.4922   -4.4121 H   0  0  0  0  0  0  0  0  0  0  0  0
    4.6416   -1.1277   -0.1694 H   0  0  0  0  0  0  0  0  0  0  0  0
    6.5990    1.5035    0.4114 H   0  0  0  0  0  0  0  0  0  0  0  0
    6.2337   -0.8508    1.1361 H   0  0  0  0  0  0  0  0  0  0  0  0
    7.1696   -1.4459   -0.2708 H   0  0  0  0  0  0  0  0  0  0  0  0
    7.2689    0.4124    2.8527 H   0  0  0  0  0  0  0  0  0  0  0  0
    9.3540    0.6986    4.2201 H   0  0  0  0  0  0  0  0  0  0  0  0
   11.4984    0.0314    3.3279 H   0  0  0  0  0  0  0  0  0  0  0  0
   11.6324   -0.9346    1.0687 H   0  0  0  0  0  0  0  0  0  0  0  0
    9.6221   -1.2226   -0.2872 H   0  0  0  0  0  0  0  0  0  0  0  0
    8.1435    0.4316   -1.9732 H   0  0  0  0  0  0  0  0  0  0  0  0
   10.1251    4.4699   -1.6786 H   0  0  0  0  0  0  0  0  0  0  0  0
   11.4498    3.5013   -2.4569 H   0  0  0  0  0  0  0  0  0  0  0  0
   12.6693    1.7460   -0.8305 H   0  0  0  0  0  0  0  0  0  0  0  0
   13.8654    1.7408    1.2572 H   0  0  0  0  0  0  0  0  0  0  0  0
   13.3626    3.3995    2.9897 H   0  0  0  0  0  0  0  0  0  0  0  0
   11.6743    5.0710    2.6634 H   0  0  0  0  0  0  0  0  0  0  0  0
   10.4221    5.1290    0.5599 H   0  0  0  0  0  0  0  0  0  0  0  0
   -8.3414    4.6296   -2.0512 H   0  0  0  0  0  0  0  0  0  0  0  0
   -6.9534    3.8760   -2.8782 H   0  0  0  0  0  0  0  0  0  0  0  0
  1  2  1  0
  2  3  1  0
  2  4  1  0
  4  5  1  0
  5  6  1  0
  6  7  1  0
  7  8  2  0
  7  9  1  0
  9 10  1  0
 10 11  1  0
 11 12  2  0
 12 13  1  0
 13 14  2  0
 14 15  1  0
 14 16  1  0
 16 17  2  0
  9 18  1  0
 18 19  1  0
 19 20  2  0
 19 21  1  0
 21 22  1  0
 22 23  1  0
 23 24  1  0
 24 25  1  0
 25 26  1  0
 26 27  2  0
 26 28  1  0
 28 29  1  0
 29 30  1  0
 30 31  2  0
 31 32  1  0
 32 33  2  0
 33 34  1  0
 34 35  2  0
 28 36  1  0
 36 37  1  0
 37 38  2  0
 37 39  1  0
 39 40  1  0
 40 41  1  0
 41 42  1  0
 41 43  2  0
 39 44  1  0
 44 45  1  0
 45 46  2  0
 45 47  1  0
 47 48  1  0
 48 49  1  0
 49 50  2  0
 50 51  1  0
 51 52  2  0
 52 53  1  0
 53 54  2  0
 47 55  1  0
 55 56  1  0
 56 57  2  0
 56 58  1  0
 58 59  1  0
 59 60  1  0
 60 61  2  0
 61 62  1  0
 62 63  2  0
 63 64  1  0
 64 65  2  0
  5 66  1  0
 66 67  1  0
 66 68  2  0
 17 11  1  0
 25 21  1  0
 35 30  1  0
 54 49  1  0
 65 60  1  0
  1 69  1  0
  1 70  1  0
  1 71  1  0
  2 72  1  0
  3 73  1  0
  3 74  1  0
  3 75  1  0
  4 76  1  0
  4 77  1  0
  5 78  1  6
  6 79  1  0
  9 80  1  1
 10 81  1  0
 10 82  1  0
 12 83  1  0
 13 84  1  0
 15 85  1  0
 16 86  1  0
 17 87  1  0
 18 88  1  0
 21 89  1  6
 22 90  1  0
 22 91  1  0
 23 92  1  0
 23 93  1  0
 24 94  1  0
 24 95  1  0
 28 96  1  6
 29 97  1  0
 29 98  1  0
 31 99  1  0
 32100  1  0
 33101  1  0
 34102  1  0
 35103  1  0
 36104  1  0
 39105  1  6
 40106  1  0
 40107  1  0
 42108  1  0
 44109  1  0
 47110  1  1
 48111  1  0
 48112  1  0
 50113  1  0
 51114  1  0
 52115  1  0
 53116  1  0
 54117  1  0
 55118  1  0
 59119  1  0
 59120  1  0
 61121  1  0
 62122  1  0
 63123  1  0
 64124  1  0
 65125  1  0
 67126  1  0
 67127  1  0
M  END
$$$$
[H]c1c([H])c([H])c(C(=O)N(C([H])([H])[H])[C@]2([H])C([H])([H])[C@]3([H])C([H])([H])N(S(=O)(=O)c4c([H])c([H])c(OC([H])([H])[H])c([H])c4[H])C([H])([H])[C@]32[H])c([H])c1[H]
     RDKit          3D

 52 55  0  0  0  0  0  0  0  0999 V2000
   -5.0615    0.8643    3.0292 C   0  0  0  0  0  0  0  0  0  0  0  0
   -4.3188   -0.2936    2.7815 O   0  0  0  0  0  0  0  0  0  0  0  0
   -3.9721   -0.6526    1.4988 C   0  0  0  0  0  0  0  0  0  0  0  0
   -4.3653    0.1430    0.4532 C   0  0  0  0  0  0  0  0  0  0  0  0
   -4.0234   -0.2085   -0.8320 C   0  0  0  0  0  0  0  0  0  0  0  0
   -3.2940   -1.3466   -1.0702 C   0  0  0  0  0  0  0  0  0  0  0  0
   -2.9011   -2.1426   -0.0195 C   0  0  0  0  0  0  0  0  0  0  0  0
   -3.2343   -1.8066    1.2747 C   0  0  0  0  0  0  0  0  0  0  0  0
   -2.8840   -1.7660   -2.7147 S   0  0  0  0  0  0  0  0  0  0  0  0
   -2.6910   -3.2773   -2.7555 O   0  0  0  0  0  0  0  0  0  0  0  0
   -4.0625   -1.4749   -3.5798 O   0  0  0  0  0  0  0  0  0  0  0  0
   -1.4358   -1.0830   -3.2643 N   0  0  0  0  0  0  0  0  0  0  0  0
   -0.3262   -1.5517   -2.4562 C   0  0  0  0  0  0  0  0  0  0  0  0
    0.0345   -0.3577   -1.6746 C   0  0  1  0  0  0  0  0  0  0  0  0
    1.3298    0.2193   -1.5165 C   0  0  1  0  0  0  0  0  0  0  0  0
    0.6225    1.5174   -1.9761 C   0  0  0  0  0  0  0  0  0  0  0  0
   -0.0099    0.6147   -2.9139 C   0  0  2  0  0  0  0  0  0  0  0  0
   -1.4065    0.3871   -3.2055 C   0  0  0  0  0  0  0  0  0  0  0  0
    1.9325    0.4824   -0.2181 N   0  0  0  0  0  0  0  0  0  0  0  0
    1.0824    0.8827    0.8464 C   0  0  0  0  0  0  0  0  0  0  0  0
    3.3195    0.3027   -0.1297 C   0  0  0  0  0  0  0  0  0  0  0  0
    3.8807   -0.1041   -1.2838 O   0  0  0  0  0  0  0  0  0  0  0  0
    4.2714    0.4557    0.9183 C   0  0  0  0  0  0  0  0  0  0  0  0
    5.6117    0.1336    0.6717 C   0  0  0  0  0  0  0  0  0  0  0  0
    6.6097    0.2553    1.6122 C   0  0  0  0  0  0  0  0  0  0  0  0
    6.2979    0.7143    2.8642 C   0  0  0  0  0  0  0  0  0  0  0  0
    5.0019    1.0370    3.1372 C   0  0  0  0  0  0  0  0  0  0  0  0
    4.0027    0.9066    2.1679 C   0  0  0  0  0  0  0  0  0  0  0  0
   -6.0468    0.8489    2.5482 H   0  0  0  0  0  0  0  0  0  0  0  0
   -4.5364    1.7880    2.6708 H   0  0  0  0  0  0  0  0  0  0  0  0
   -5.2021    1.0287    4.1244 H   0  0  0  0  0  0  0  0  0  0  0  0
   -4.9537    1.0643    0.6227 H   0  0  0  0  0  0  0  0  0  0  0  0
   -4.3478    0.4433   -1.6683 H   0  0  0  0  0  0  0  0  0  0  0  0
   -2.3148   -3.0630   -0.2011 H   0  0  0  0  0  0  0  0  0  0  0  0
   -2.9293   -2.4281    2.1148 H   0  0  0  0  0  0  0  0  0  0  0  0
   -0.6900   -2.3572   -1.8007 H   0  0  0  0  0  0  0  0  0  0  0  0
    0.4887   -1.9757   -3.0705 H   0  0  0  0  0  0  0  0  0  0  0  0
   -0.7815   -0.0502   -1.0167 H   0  0  0  0  0  0  0  0  0  0  0  0
    2.0810   -0.0984   -2.2731 H   0  0  0  0  0  0  0  0  0  0  0  0
    0.0416    1.9256   -1.1535 H   0  0  0  0  0  0  0  0  0  0  0  0
    1.4058    2.2251   -2.3403 H   0  0  0  0  0  0  0  0  0  0  0  0
    0.7058    0.1786   -3.6415 H   0  0  0  0  0  0  0  0  0  0  0  0
   -1.7438    0.8293   -4.1572 H   0  0  0  0  0  0  0  0  0  0  0  0
   -2.0844    0.7116   -2.4193 H   0  0  0  0  0  0  0  0  0  0  0  0
    1.2135    0.1632    1.7000 H   0  0  0  0  0  0  0  0  0  0  0  0
   -0.0112    0.8660    0.5481 H   0  0  0  0  0  0  0  0  0  0  0  0
    1.3220    1.8947    1.2243 H   0  0  0  0  0  0  0  0  0  0  0  0
    5.9006   -0.2372   -0.3157 H   0  0  0  0  0  0  0  0  0  0  0  0
    7.6201   -0.0149    1.3416 H   0  0  0  0  0  0  0  0  0  0  0  0
    7.0853    0.8161    3.6245 H   0  0  0  0  0  0  0  0  0  0  0  0
    4.7360    1.3970    4.1067 H   0  0  0  0  0  0  0  0  0  0  0  0
    3.0305    1.1937    2.4919 H   0  0  0  0  0  0  0  0  0  0  0  0
  1  2  1  0
  2  3  1  0
  3  4  2  0
  4  5  1  0
  5  6  2  0
  6  7  1  0
  7  8  2  0
  6  9  1  0
  9 10  2  0
  9 11  2  0
  9 12  1  0
 12 13  1  0
 13 14  1  0
 14 15  1  0
 15 16  1  0
 16 17  1  0
 17 18  1  0
 15 19  1  0
 19 20  1  0
 19 21  1  0
 21 22  2  0
 21 23  1  0
 23 24  2  0
 24 25  1  0
 25 26  2  0
 26 27  1  0
 27 28  2  0
  8  3  1  0
 18 12  1  0
 28 23  1  0
 17 14  1  0
  1 29  1  0
  1 30  1  0
  1 31  1  0
  4 32  1  0
  5 33  1  0
  7 34  1  0
  8 35  1  0
 13 36  1  0
 13 37  1  0
 14 38  1  1
 15 39  1  6
 16 40  1  0
 16 41  1  0
 17 42  1  6
 18 43  1  0
 18 44  1  0
 20 45  1  0
 20 46  1  0
 20 47  1  0
 24 48  1  0
 25 49  1  0
 26 50  1  0
 27 51  1  0
 28 52  1  0
M  END
$$$$
[H]c1c([H])c([H])c(C([H])([H])[C@@]([H])(C(=O)N([H])[H])N([H])C(=O)[C@@]([H])(N([H])C(=O)[C@@]([H])(N([H])C(=O)[C@@]([H])(N([H])C(=O)[C@@]([H])(N([H])C(=O)c2c([H])c3c([H])c([H])c([H])c([H])c3n2[H])C([H])([H])c2c([H])c([H])c([H])c([H])c2[H])C([H])([H])[H])C([H])([H])c2c([H])c([H])c([H])c([H])c2[H])C([H])([H])c2c([H])c([H])c([H])c([H])c2[H])c([H])c1[H]
     RDKit          3D

110115  0  0  0  0  0  0  0  0999 V2000
    1.4838    2.0969   -2.1606 C   0  0  0  0  0  0  0  0  0  0  0  0
    1.9936    1.0583   -1.1677 C   0  0  2  0  0  0  0  0  0  0  0  0
    3.3225    0.6951   -1.5626 N   0  0  0  0  0  0  0  0  0  0  0  0
    4.4095    1.1525   -0.7788 C   0  0  0  0  0  0  0  0  0  0  0  0
    4.1570    1.8270    0.2312 O   0  0  0  0  0  0  0  0  0  0  0  0
    5.8004    0.8251   -1.1645 C   0  0  2  0  0  0  0  0  0  0  0  0
    5.8927   -0.2524   -2.1714 C   0  0  0  0  0  0  0  0  0  0  0  0
    7.2254   -0.7113   -2.5594 C   0  0  0  0  0  0  0  0  0  0  0  0
    7.9527   -0.0980   -3.5202 C   0  0  0  0  0  0  0  0  0  0  0  0
    9.1860   -0.5607   -3.9272 C   0  0  0  0  0  0  0  0  0  0  0  0
    9.7083   -1.6968   -3.3324 C   0  0  0  0  0  0  0  0  0  0  0  0
    8.9627   -2.3068   -2.3585 C   0  0  0  0  0  0  0  0  0  0  0  0
    7.7264   -1.8673   -1.9324 C   0  0  0  0  0  0  0  0  0  0  0  0
    6.7499    0.8732   -0.1330 N   0  0  0  0  0  0  0  0  0  0  0  0
    7.0464    1.8264    0.8553 C   0  0  0  0  0  0  0  0  0  0  0  0
    6.4518    2.9291    1.0580 O   0  0  0  0  0  0  0  0  0  0  0  0
    8.1657    1.5915    1.8102 C   0  0  0  0  0  0  0  0  0  0  0  0
    9.2011    0.7229    1.5770 C   0  0  0  0  0  0  0  0  0  0  0  0
   10.0773    0.7093    2.6659 C   0  0  0  0  0  0  0  0  0  0  0  0
   11.2555    0.0155    2.9072 C   0  0  0  0  0  0  0  0  0  0  0  0
   11.9306    0.2211    4.1128 C   0  0  0  0  0  0  0  0  0  0  0  0
   11.3751    1.1205    5.0114 C   0  0  0  0  0  0  0  0  0  0  0  0
   10.2129    1.7861    4.7395 C   0  0  0  0  0  0  0  0  0  0  0  0
    9.5204    1.6051    3.5533 C   0  0  0  0  0  0  0  0  0  0  0  0
    8.3869    2.1085    3.0134 N   0  0  0  0  0  0  0  0  0  0  0  0
    1.0175   -0.0122   -1.0881 C   0  0  0  0  0  0  0  0  0  0  0  0
    1.2437   -1.2183   -1.3387 O   0  0  0  0  0  0  0  0  0  0  0  0
   -0.3555    0.2547   -0.6956 N   0  0  0  0  0  0  0  0  0  0  0  0
   -1.3771   -0.7281   -0.5855 C   0  0  1  0  0  0  0  0  0  0  0  0
   -1.6114   -0.9524    0.9187 C   0  0  0  0  0  0  0  0  0  0  0  0
   -0.3869   -1.4279    1.5645 C   0  0  0  0  0  0  0  0  0  0  0  0
    0.5538   -0.6375    2.1806 C   0  0  0  0  0  0  0  0  0  0  0  0
    1.6997   -1.1496    2.7901 C   0  0  0  0  0  0  0  0  0  0  0  0
    1.9076   -2.5193    2.7789 C   0  0  0  0  0  0  0  0  0  0  0  0
    0.9939   -3.3278    2.1786 C   0  0  0  0  0  0  0  0  0  0  0  0
   -0.1485   -2.8215    1.5705 C   0  0  0  0  0  0  0  0  0  0  0  0
   -2.6348   -0.2813   -1.2186 C   0  0  0  0  0  0  0  0  0  0  0  0
   -2.7806    0.8217   -1.7738 O   0  0  0  0  0  0  0  0  0  0  0  0
   -3.7774   -1.1551   -1.2070 N   0  0  0  0  0  0  0  0  0  0  0  0
   -5.0020   -0.7224   -1.8157 C   0  0  1  0  0  0  0  0  0  0  0  0
   -5.6666   -1.6998   -2.7097 C   0  0  0  0  0  0  0  0  0  0  0  0
   -6.0466   -2.9862   -2.0911 C   0  0  0  0  0  0  0  0  0  0  0  0
   -5.0788   -3.9976   -2.0800 C   0  0  0  0  0  0  0  0  0  0  0  0
   -5.3892   -5.2022   -1.5246 C   0  0  0  0  0  0  0  0  0  0  0  0
   -6.6401   -5.4656   -0.9654 C   0  0  0  0  0  0  0  0  0  0  0  0
   -7.5659   -4.4297   -0.9991 C   0  0  0  0  0  0  0  0  0  0  0  0
   -7.3046   -3.2061   -1.5443 C   0  0  0  0  0  0  0  0  0  0  0  0
   -5.9723   -0.1898   -0.8276 C   0  0  0  0  0  0  0  0  0  0  0  0
   -5.7636   -0.2996    0.4127 O   0  0  0  0  0  0  0  0  0  0  0  0
   -7.1420    0.4587   -1.2653 N   0  0  0  0  0  0  0  0  0  0  0  0
   -8.0890    1.0004   -0.2527 C   0  0  1  0  0  0  0  0  0  0  0  0
   -7.9306    2.4908   -0.2444 C   0  0  0  0  0  0  0  0  0  0  0  0
   -8.7601    3.2742    0.6613 C   0  0  0  0  0  0  0  0  0  0  0  0
   -8.4054    3.4706    1.9773 C   0  0  0  0  0  0  0  0  0  0  0  0
   -9.1596    4.2733    2.7906 C   0  0  0  0  0  0  0  0  0  0  0  0
  -10.2934    4.9205    2.3640 C   0  0  0  0  0  0  0  0  0  0  0  0
  -10.6764    4.7333    1.0252 C   0  0  0  0  0  0  0  0  0  0  0  0
   -9.9214    3.9405    0.2347 C   0  0  0  0  0  0  0  0  0  0  0  0
   -9.4336    0.5629   -0.5323 C   0  0  0  0  0  0  0  0  0  0  0  0
  -10.5106    0.8677    0.3425 N   0  0  0  0  0  0  0  0  0  0  0  0
   -9.7167   -0.1066   -1.5551 O   0  0  0  0  0  0  0  0  0  0  0  0
    1.1100    1.6418   -3.0878 H   0  0  0  0  0  0  0  0  0  0  0  0
    0.6110    2.6421   -1.6979 H   0  0  0  0  0  0  0  0  0  0  0  0
    2.2404    2.8573   -2.4012 H   0  0  0  0  0  0  0  0  0  0  0  0
    2.0069    1.6145   -0.1688 H   0  0  0  0  0  0  0  0  0  0  0  0
    3.5043    0.1009   -2.3862 H   0  0  0  0  0  0  0  0  0  0  0  0
    6.0482    1.8055   -1.7878 H   0  0  0  0  0  0  0  0  0  0  0  0
    5.3177    0.0586   -3.1057 H   0  0  0  0  0  0  0  0  0  0  0  0
    5.3068   -1.1430   -1.8179 H   0  0  0  0  0  0  0  0  0  0  0  0
    7.5761    0.7969   -4.0100 H   0  0  0  0  0  0  0  0  0  0  0  0
    9.7863   -0.0849   -4.6950 H   0  0  0  0  0  0  0  0  0  0  0  0
   10.6622   -2.0971   -3.6146 H   0  0  0  0  0  0  0  0  0  0  0  0
    9.3684   -3.2086   -1.8754 H   0  0  0  0  0  0  0  0  0  0  0  0
    7.1443   -2.3798   -1.1496 H   0  0  0  0  0  0  0  0  0  0  0  0
    7.4208   -0.0103   -0.0712 H   0  0  0  0  0  0  0  0  0  0  0  0
    9.3563    0.1144    0.6906 H   0  0  0  0  0  0  0  0  0  0  0  0
   11.6463   -0.6642    2.1716 H   0  0  0  0  0  0  0  0  0  0  0  0
   12.8665   -0.3034    4.3443 H   0  0  0  0  0  0  0  0  0  0  0  0
   11.9245    1.2605    5.9569 H   0  0  0  0  0  0  0  0  0  0  0  0
    9.8141    2.4649    5.4797 H   0  0  0  0  0  0  0  0  0  0  0  0
    7.7495    2.8103    3.4743 H   0  0  0  0  0  0  0  0  0  0  0  0
   -0.5434    1.2942   -0.4969 H   0  0  0  0  0  0  0  0  0  0  0  0
   -1.0318   -1.6714   -1.0398 H   0  0  0  0  0  0  0  0  0  0  0  0
   -2.4112   -1.6976    1.0956 H   0  0  0  0  0  0  0  0  0  0  0  0
   -1.9088    0.0153    1.3889 H   0  0  0  0  0  0  0  0  0  0  0  0
    0.3647    0.4287    2.1735 H   0  0  0  0  0  0  0  0  0  0  0  0
    2.4186   -0.5078    3.2588 H   0  0  0  0  0  0  0  0  0  0  0  0
    2.7939   -2.9726    3.2368 H   0  0  0  0  0  0  0  0  0  0  0  0
    1.1705   -4.4143    2.1727 H   0  0  0  0  0  0  0  0  0  0  0  0
   -0.8889   -3.4250    1.0871 H   0  0  0  0  0  0  0  0  0  0  0  0
   -3.6701   -2.0848   -0.7554 H   0  0  0  0  0  0  0  0  0  0  0  0
   -4.7464    0.1995   -2.4461 H   0  0  0  0  0  0  0  0  0  0  0  0
   -5.1529   -1.8613   -3.6794 H   0  0  0  0  0  0  0  0  0  0  0  0
   -6.6584   -1.2259   -2.9998 H   0  0  0  0  0  0  0  0  0  0  0  0
   -4.0845   -3.8369   -2.5113 H   0  0  0  0  0  0  0  0  0  0  0  0
   -4.6534   -6.0155   -1.4979 H   0  0  0  0  0  0  0  0  0  0  0  0
   -6.8788   -6.4248   -0.5331 H   0  0  0  0  0  0  0  0  0  0  0  0
   -8.5593   -4.5784   -0.5750 H   0  0  0  0  0  0  0  0  0  0  0  0
   -8.0301   -2.4053   -1.5744 H   0  0  0  0  0  0  0  0  0  0  0  0
   -7.3773    0.5797   -2.2693 H   0  0  0  0  0  0  0  0  0  0  0  0
   -7.7701    0.6179    0.7565 H   0  0  0  0  0  0  0  0  0  0  0  0
   -8.1427    2.8366   -1.2956 H   0  0  0  0  0  0  0  0  0  0  0  0
   -6.8242    2.6934   -0.0684 H   0  0  0  0  0  0  0  0  0  0  0  0
   -7.5107    2.9807    2.3921 H   0  0  0  0  0  0  0  0  0  0  0  0
   -8.8654    4.4230    3.8384 H   0  0  0  0  0  0  0  0  0  0  0  0
  -10.9113    5.5631    2.9706 H   0  0  0  0  0  0  0  0  0  0  0  0
  -11.5725    5.2302    0.6663 H   0  0  0  0  0  0  0  0  0  0  0  0
  -10.2121    3.8034   -0.8143 H   0  0  0  0  0  0  0  0  0  0  0  0
  -10.4385    0.8592    1.3976 H   0  0  0  0  0  0  0  0  0  0  0  0
  -11.4356    1.1170   -0.0817 H   0  0  0  0  0  0  0  0  0  0  0  0
  1  2  1  0
  2  3  1  0
  3  4  1  0
  4  5  2  0
  4  6  1  0
  6  7  1  0
  7  8  1  0
  8  9  2  0
  9 10  1  0
 10 11  2  0
 11 12  1  0
 12 13  2  0
  6 14  1  0
 14 15  1  0
 15 16  2  0
 15 17  1  0
 17 18  2  0
 18 19  1  0
 19 20  2  0
 20 21  1  0
 21 22  2  0
 22 23  1  0
 23 24  2  0
 24 25  1  0
  2 26  1  0
 26 27  2  0
 26 28  1  0
 28 29  1  0
 29 30  1  0
 30 31  1  0
 31 32  2  0
 32 33  1  0
 33 34  2  0
 34 35  1  0
 35 36  2  0
 29 37  1  0
 37 38  2  0
 37 39  1  0
 39 40  1  0
 40 41  1  0
 41 42  1  0
 42 43  2  0
 43 44  1  0
 44 45  2  0
 45 46  1  0
 46 47  2  0
 40 48  1  0
 48 49  2  0
 48 50  1  0
 50 51  1  0
 51 52  1  0
 52 53  1  0
 53 54  2  0
 54 55  1  0
 55 56  2  0
 56 57  1  0
 57 58  2  0
 51 59  1  0
 59 60  1  0
 59 61  2  0
 13  8  1  0
 25 17  1  0
 36 31  1  0
 47 42  1  0
 58 53  1  0
 24 19  1  0
  1 62  1  0
  1 63  1  0
  1 64  1  0
  2 65  1  1
  3 66  1  0
  6 67  1  6
  7 68  1  0
  7 69  1  0
  9 70  1  0
 10 71  1  0
 11 72  1  0
 12 73  1  0
 13 74  1  0
 14 75  1  0
 18 76  1  0
 20 77  1  0
 21 78  1  0
 22 79  1  0
 23 80  1  0
 25 81  1  0
 28 82  1  0
 29 83  1  6
 30 84  1  0
 30 85  1  0
 32 86  1  0
 33 87  1  0
 34 88  1  0
 35 89  1  0
 36 90  1  0
 39 91  1  0
 40 92  1  6
 41 93  1  0
 41 94  1  0
 43 95  1  0
 44 96  1  0
 45 97  1  0
 46 98  1  0
 47 99  1  0
 50100  1  0
 51101  1  1
 52102  1  0
 52103  1  0
 54104  1  0
 55105  1  0
 56106  1  0
 57107  1  0
 58108  1  0
 60109  1  0
 60110  1  0
M  END
$$$$
[H]OC(=O)C([H])([H])[C@@]([H])(C(=O)N([H])[C@@]([H])(C(=O)N1C([H])([H])C([H])([H])C([H])([H])[C@@]1([H])C(=O)N([H])[C@]([H])(C(=O)N([H])[H])C([H])([H])[H])C([H])([H])c1c([H])c([H])c(O[H])c([H])c1[H])N([H])C(=O)[C@@]([H])(N([H])C(=O)[C@@]([H])(N([H])C(=O)[C@]([H])(N([H])C(=O)[C@@]([H])(N([H])C(=O)C([H])([H])[H])C([H])([H])[H])C([H])([H])[H])C([H])([H])c1c([H])c([H])c([H])c([H])c1[H])C([H])([H])c1c([H])c([H])c([H])c([H])c1[H]
     RDKit          3D

127130  0  0  0  0  0  0  0  0999 V2000
   -4.7976    2.1248    2.7713 C   0  0  0  0  0  0  0  0  0  0  0  0
   -5.9653    2.8445    2.1944 C   0  0  2  0  0  0  0  0  0  0  0  0
   -6.4401    2.2303    0.9284 N   0  0  0  0  0  0  0  0  0  0  0  0
   -7.7526    1.8005    0.8165 C   0  0  0  0  0  0  0  0  0  0  0  0
   -8.4877    1.9751    1.8762 O   0  0  0  0  0  0  0  0  0  0  0  0
   -8.4011    1.2093   -0.2957 C   0  0  2  0  0  0  0  0  0  0  0  0
   -9.7403    0.5582    0.1338 C   0  0  0  0  0  0  0  0  0  0  0  0
  -10.1393   -0.2685   -1.0524 C   0  0  0  0  0  0  0  0  0  0  0  0
   -9.1372    0.1317   -2.1173 C   0  0  0  0  0  0  0  0  0  0  0  0
   -7.8974    0.2891   -1.2152 N   0  0  0  0  0  0  0  0  0  0  0  0
   -6.7875   -0.4801   -1.5171 C   0  0  0  0  0  0  0  0  0  0  0  0
   -6.9016   -1.1457   -2.6615 O   0  0  0  0  0  0  0  0  0  0  0  0
   -5.5154   -0.7541   -0.8975 C   0  0  1  0  0  0  0  0  0  0  0  0
   -5.5091   -2.1685   -0.2393 C   0  0  0  0  0  0  0  0  0  0  0  0
   -6.5197   -2.3183    0.8054 C   0  0  0  0  0  0  0  0  0  0  0  0
   -7.7856   -2.8305    0.6327 C   0  0  0  0  0  0  0  0  0  0  0  0
   -8.6755   -2.9240    1.6797 C   0  0  0  0  0  0  0  0  0  0  0  0
   -8.3123   -2.4948    2.9716 C   0  0  0  0  0  0  0  0  0  0  0  0
   -9.2361   -2.6031    4.0010 O   0  0  0  0  0  0  0  0  0  0  0  0
   -7.0522   -1.9842    3.1448 C   0  0  0  0  0  0  0  0  0  0  0  0
   -6.1637   -1.8909    2.0971 C   0  0  0  0  0  0  0  0  0  0  0  0
   -4.4754   -0.8596   -1.9583 N   0  0  0  0  0  0  0  0  0  0  0  0
   -3.0952   -0.8039   -1.6645 C   0  0  0  0  0  0  0  0  0  0  0  0
   -2.7828   -0.6734   -0.4299 O   0  0  0  0  0  0  0  0  0  0  0  0
   -1.9981   -0.8891   -2.6428 C   0  0  2  0  0  0  0  0  0  0  0  0
   -2.4509   -0.9276   -4.0633 C   0  0  0  0  0  0  0  0  0  0  0  0
   -3.1902    0.2626   -4.5105 C   0  0  0  0  0  0  0  0  0  0  0  0
   -3.7933    0.3165   -5.7304 O   0  0  0  0  0  0  0  0  0  0  0  0
   -3.2492    1.2515   -3.7076 O   0  0  0  0  0  0  0  0  0  0  0  0
   -0.9566   -1.8108   -2.3032 N   0  0  0  0  0  0  0  0  0  0  0  0
    0.2761   -1.5268   -1.6940 C   0  0  0  0  0  0  0  0  0  0  0  0
    0.5504   -0.3443   -1.3773 O   0  0  0  0  0  0  0  0  0  0  0  0
    1.2819   -2.6301   -1.4155 C   0  0  2  0  0  0  0  0  0  0  0  0
    0.5613   -3.7464   -0.7521 C   0  0  0  0  0  0  0  0  0  0  0  0
    1.3998   -4.9039   -0.3639 C   0  0  0  0  0  0  0  0  0  0  0  0
    1.8441   -4.9426    0.9551 C   0  0  0  0  0  0  0  0  0  0  0  0
    2.6308   -5.9653    1.4321 C   0  0  0  0  0  0  0  0  0  0  0  0
    2.9904   -6.9843    0.5736 C   0  0  0  0  0  0  0  0  0  0  0  0
    2.5373   -6.9323   -0.7500 C   0  0  0  0  0  0  0  0  0  0  0  0
    1.7501   -5.9102   -1.2266 C   0  0  0  0  0  0  0  0  0  0  0  0
    2.4565   -2.1962   -0.7733 N   0  0  0  0  0  0  0  0  0  0  0  0
    3.4600   -1.3073   -1.2755 C   0  0  0  0  0  0  0  0  0  0  0  0
    3.2093   -0.8322   -2.4215 O   0  0  0  0  0  0  0  0  0  0  0  0
    4.6807   -0.9957   -0.4910 C   0  0  2  0  0  0  0  0  0  0  0  0
    4.7611   -1.8420    0.7548 C   0  0  0  0  0  0  0  0  0  0  0  0
    5.9551   -1.6662    1.5795 C   0  0  0  0  0  0  0  0  0  0  0  0
    7.1134   -2.3718    1.2486 C   0  0  0  0  0  0  0  0  0  0  0  0
    8.2632   -2.2657    2.0380 C   0  0  0  0  0  0  0  0  0  0  0  0
    8.2453   -1.4577    3.1496 C   0  0  0  0  0  0  0  0  0  0  0  0
    7.1331   -0.7639    3.4897 C   0  0  0  0  0  0  0  0  0  0  0  0
    5.9747   -0.8815    2.6800 C   0  0  0  0  0  0  0  0  0  0  0  0
    5.0431    0.3538   -0.3781 N   0  0  0  0  0  0  0  0  0  0  0  0
    6.2660    0.9697   -0.6982 C   0  0  0  0  0  0  0  0  0  0  0  0
    7.2326    0.2804   -1.1754 O   0  0  0  0  0  0  0  0  0  0  0  0
    6.4980    2.4179   -0.4903 C   0  0  1  0  0  0  0  0  0  0  0  0
    6.0078    2.8040    0.9372 C   0  0  0  0  0  0  0  0  0  0  0  0
    7.8555    2.8479   -0.5868 N   0  0  0  0  0  0  0  0  0  0  0  0
    8.2502    4.1336   -0.9949 C   0  0  0  0  0  0  0  0  0  0  0  0
    7.4035    4.9864   -1.3166 O   0  0  0  0  0  0  0  0  0  0  0  0
    9.6896    4.5148   -1.0459 C   0  0  2  0  0  0  0  0  0  0  0  0
   10.2381    4.2993    0.3771 C   0  0  0  0  0  0  0  0  0  0  0  0
    9.9017    5.9001   -1.3880 N   0  0  0  0  0  0  0  0  0  0  0  0
    9.4901    6.9089   -0.4933 C   0  0  0  0  0  0  0  0  0  0  0  0
    9.7115    8.3360   -0.8482 C   0  0  0  0  0  0  0  0  0  0  0  0
    8.9458    6.6117    0.5855 O   0  0  0  0  0  0  0  0  0  0  0  0
   -5.7298    4.2861    1.9840 C   0  0  0  0  0  0  0  0  0  0  0  0
   -5.2528    5.0375    3.1015 N   0  0  0  0  0  0  0  0  0  0  0  0
   -5.9142    4.8976    0.9111 O   0  0  0  0  0  0  0  0  0  0  0  0
   -3.9341    2.0363    2.1051 H   0  0  0  0  0  0  0  0  0  0  0  0
   -4.4430    2.6089    3.7302 H   0  0  0  0  0  0  0  0  0  0  0  0
   -5.1315    1.0930    3.0745 H   0  0  0  0  0  0  0  0  0  0  0  0
   -6.8118    2.7899    2.9331 H   0  0  0  0  0  0  0  0  0  0  0  0
   -5.7219    2.1528    0.1528 H   0  0  0  0  0  0  0  0  0  0  0  0
   -8.7712    2.1263   -0.9724 H   0  0  0  0  0  0  0  0  0  0  0  0
   -9.6466   -0.0564    1.0162 H   0  0  0  0  0  0  0  0  0  0  0  0
  -10.5054    1.3538    0.2584 H   0  0  0  0  0  0  0  0  0  0  0  0
  -11.1584   -0.0551   -1.4380 H   0  0  0  0  0  0  0  0  0  0  0  0
  -10.1060   -1.3559   -0.8655 H   0  0  0  0  0  0  0  0  0  0  0  0
   -9.3136    1.1453   -2.4901 H   0  0  0  0  0  0  0  0  0  0  0  0
   -8.9656   -0.6438   -2.8498 H   0  0  0  0  0  0  0  0  0  0  0  0
   -5.1080   -0.1295   -0.1215 H   0  0  0  0  0  0  0  0  0  0  0  0
   -4.4991   -2.3847    0.1534 H   0  0  0  0  0  0  0  0  0  0  0  0
   -5.7070   -2.9165   -1.0364 H   0  0  0  0  0  0  0  0  0  0  0  0
   -8.0789   -3.1665   -0.3803 H   0  0  0  0  0  0  0  0  0  0  0  0
   -9.6550   -3.3188    1.5592 H   0  0  0  0  0  0  0  0  0  0  0  0
   -9.2785   -3.4676    4.5759 H   0  0  0  0  0  0  0  0  0  0  0  0
   -6.7751   -1.6470    4.1574 H   0  0  0  0  0  0  0  0  0  0  0  0
   -5.1865   -1.4853    2.2602 H   0  0  0  0  0  0  0  0  0  0  0  0
   -4.8432   -0.9913   -2.9099 H   0  0  0  0  0  0  0  0  0  0  0  0
   -1.4878    0.1519   -2.5440 H   0  0  0  0  0  0  0  0  0  0  0  0
   -3.0889   -1.8403   -4.2058 H   0  0  0  0  0  0  0  0  0  0  0  0
   -1.6020   -1.0617   -4.7705 H   0  0  0  0  0  0  0  0  0  0  0  0
   -3.9139   -0.5635   -6.2499 H   0  0  0  0  0  0  0  0  0  0  0  0
   -1.1129   -2.8559   -2.5400 H   0  0  0  0  0  0  0  0  0  0  0  0
    1.4970   -2.9485   -2.4981 H   0  0  0  0  0  0  0  0  0  0  0  0
   -0.0053   -3.4105    0.1594 H   0  0  0  0  0  0  0  0  0  0  0  0
   -0.2334   -4.1949   -1.4193 H   0  0  0  0  0  0  0  0  0  0  0  0
    1.5875   -4.1675    1.6597 H   0  0  0  0  0  0  0  0  0  0  0  0
    2.9831   -6.0035    2.4616 H   0  0  0  0  0  0  0  0  0  0  0  0
    3.6147   -7.8098    0.9203 H   0  0  0  0  0  0  0  0  0  0  0  0
    2.8269   -7.7340   -1.4163 H   0  0  0  0  0  0  0  0  0  0  0  0
    1.4106   -5.8988   -2.2699 H   0  0  0  0  0  0  0  0  0  0  0  0
    2.6206   -2.5760    0.2115 H   0  0  0  0  0  0  0  0  0  0  0  0
    5.5225   -1.4602   -1.1456 H   0  0  0  0  0  0  0  0  0  0  0  0
    4.5967   -2.9133    0.5130 H   0  0  0  0  0  0  0  0  0  0  0  0
    3.8500   -1.5481    1.3724 H   0  0  0  0  0  0  0  0  0  0  0  0
    7.1217   -2.9918    0.3891 H   0  0  0  0  0  0  0  0  0  0  0  0
    9.1736   -2.8053    1.7955 H   0  0  0  0  0  0  0  0  0  0  0  0
    9.1683   -1.3845    3.7744 H   0  0  0  0  0  0  0  0  0  0  0  0
    7.0996   -0.1222    4.3480 H   0  0  0  0  0  0  0  0  0  0  0  0
    5.1385   -0.3129    3.0055 H   0  0  0  0  0  0  0  0  0  0  0  0
    4.2880    1.0180    0.0074 H   0  0  0  0  0  0  0  0  0  0  0  0
    5.8628    3.0268   -1.1346 H   0  0  0  0  0  0  0  0  0  0  0  0
    6.4589    3.8196    1.0996 H   0  0  0  0  0  0  0  0  0  0  0  0
    4.9120    2.9585    0.8956 H   0  0  0  0  0  0  0  0  0  0  0  0
    6.3355    2.0494    1.6433 H   0  0  0  0  0  0  0  0  0  0  0  0
    8.6082    2.1419   -0.3373 H   0  0  0  0  0  0  0  0  0  0  0  0
   10.3046    3.8714   -1.6896 H   0  0  0  0  0  0  0  0  0  0  0  0
   10.7658    3.3132    0.3873 H   0  0  0  0  0  0  0  0  0  0  0  0
    9.3836    4.2852    1.0936 H   0  0  0  0  0  0  0  0  0  0  0  0
   10.9514    5.0724    0.6590 H   0  0  0  0  0  0  0  0  0  0  0  0
   10.3627    6.1536   -2.2928 H   0  0  0  0  0  0  0  0  0  0  0  0
    8.7274    8.8358   -1.0289 H   0  0  0  0  0  0  0  0  0  0  0  0
   10.1879    8.9015    0.0114 H   0  0  0  0  0  0  0  0  0  0  0  0
   10.3688    8.4259   -1.7369 H   0  0  0  0  0  0  0  0  0  0  0  0
   -4.3073    5.4486    2.9952 H   0  0  0  0  0  0  0  0  0  0  0  0
   -5.8393    5.1560    3.9483 H   0  0  0  0  0  0  0  0  0  0  0  0
  1  2  1  0
  2  3  1  0
  3  4  1  0
  4  5  2  0
  4  6  1  0
  6  7  1  0
  7  8  1  0
  8  9  1  0
  9 10  1  0
 10 11  1  0
 11 12  2  0
 11 13  1  0
 13 14  1  0
 14 15  1  0
 15 16  2  0
 16 17  1  0
 17 18  2  0
 18 19  1  0
 18 20  1  0
 20 21  2  0
 13 22  1  0
 22 23  1  0
 23 24  2  0
 23 25  1  0
 25 26  1  0
 26 27  1  0
 27 28  1  0
 27 29  2  0
 25 30  1  0
 30 31  1  0
 31 32  2  0
 31 33  1  0
 33 34  1  0
 34 35  1  0
 35 36  2  0
 36 37  1  0
 37 38  2  0
 38 39  1  0
 39 40  2  0
 33 41  1  0
 41 42  1  0
 42 43  2  0
 42 44  1  0
 44 45  1  0
 45 46  1  0
 46 47  2  0
 47 48  1  0
 48 49  2  0
 49 50  1  0
 50 51  2  0
 44 52  1  0
 52 53  1  0
 53 54  2  0
 53 55  1  0
 55 56  1  0
 55 57  1  0
 57 58  1  0
 58 59  2  0
 58 60  1  0
 60 61  1  0
 60 62  1  0
 62 63  1  0
 63 64  1  0
 63 65  2  0
  2 66  1  0
 66 67  1  0
 66 68  2  0
 10  6  1  0
 21 15  1  0
 40 35  1  0
 51 46  1  0
  1 69  1  0
  1 70  1  0
  1 71  1  0
  2 72  1  1
  3 73  1  0
  6 74  1  6
  7 75  1  0
  7 76  1  0
  8 77  1  0
  8 78  1  0
  9 79  1  0
  9 80  1  0
 13 81  1  1
 14 82  1  0
 14 83  1  0
 16 84  1  0
 17 85  1  0
 19 86  1  0
 20 87  1  0
 21 88  1  0
 22 89  1  0
 25 90  1  6
 26 91  1  0
 26 92  1  0
 28 93  1  0
 30 94  1  0
 33 95  1  6
 34 96  1  0
 34 97  1  0
 36 98  1  0
 37 99  1  0
 38100  1  0
 39101  1  0
 40102  1  0
 41103  1  0
 44104  1  6
 45105  1  0
 45106  1  0
 47107  1  0
 48108  1  0
 49109  1  0
 50110  1  0
 51111  1  0
 52112  1  0
 55113  1  6
 56114  1  0
 56115  1  0
 56116  1  0
 57117  1  0
 60118  1  6
 61119  1  0
 61120  1  0
 61121  1  0
 62122  1  0
 64123  1  0
 64124  1  0
 64125  1  0
 67126  1  0
 67127  1  0
M  END
$$$$
[H]OC(=O)[C@@]([H])(N([H])C(=O)[C@@]([H])(N([H])C(=O)[C@@]([H])(N([H])[H])C([H])([H])c1c([H])c([H])c(O[H])c([H])c1[H])C([H])([H])C([H])(C([H])([H])[H])C([H])([H])[H])C([H])([H])c1c([H])c([H])c(O[H])c([H])c1[H]
     RDKit          3D

 64 65  0  0  0  0  0  0  0  0999 V2000
   -0.7104   -4.6641    1.1755 C   0  0  0  0  0  0  0  0  0  0  0  0
   -1.0520   -3.1649    1.3137 C   0  0  0  0  0  0  0  0  0  0  0  0
   -2.3943   -2.9848    0.6924 C   0  0  0  0  0  0  0  0  0  0  0  0
    0.0755   -2.4229    0.6969 C   0  0  0  0  0  0  0  0  0  0  0  0
    0.0019   -0.9367    0.7085 C   0  0  2  0  0  0  0  0  0  0  0  0
   -1.1283   -0.3912    0.0127 N   0  0  0  0  0  0  0  0  0  0  0  0
   -1.9904    0.5284    0.6523 C   0  0  0  0  0  0  0  0  0  0  0  0
   -1.8291    0.9173    1.8354 O   0  0  0  0  0  0  0  0  0  0  0  0
   -3.1721    1.0996   -0.0719 C   0  0  1  0  0  0  0  0  0  0  0  0
   -3.2423    0.5749   -1.3997 N   0  0  0  0  0  0  0  0  0  0  0  0
   -4.4000    0.8526    0.7564 C   0  0  0  0  0  0  0  0  0  0  0  0
   -5.5765    1.4186    0.0402 C   0  0  0  0  0  0  0  0  0  0  0  0
   -6.3104    0.6636   -0.8533 C   0  0  0  0  0  0  0  0  0  0  0  0
   -7.3881    1.1869   -1.5078 C   0  0  0  0  0  0  0  0  0  0  0  0
   -7.7976    2.4901   -1.3115 C   0  0  0  0  0  0  0  0  0  0  0  0
   -8.8829    3.0401   -1.9612 O   0  0  0  0  0  0  0  0  0  0  0  0
   -7.0574    3.2460   -0.4125 C   0  0  0  0  0  0  0  0  0  0  0  0
   -5.9675    2.7230    0.2519 C   0  0  0  0  0  0  0  0  0  0  0  0
    1.2453   -0.4451    0.0106 C   0  0  0  0  0  0  0  0  0  0  0  0
    1.1054    0.2971   -0.9997 O   0  0  0  0  0  0  0  0  0  0  0  0
    2.5079   -0.8280    0.5064 N   0  0  0  0  0  0  0  0  0  0  0  0
    3.7319   -0.3765   -0.1375 C   0  0  1  0  0  0  0  0  0  0  0  0
    4.4593    0.4466    0.8774 C   0  0  0  0  0  0  0  0  0  0  0  0
    5.7343    1.0186    0.4643 C   0  0  0  0  0  0  0  0  0  0  0  0
    5.7564    2.2577   -0.1698 C   0  0  0  0  0  0  0  0  0  0  0  0
    6.9432    2.8392   -0.5604 C   0  0  0  0  0  0  0  0  0  0  0  0
    8.1568    2.2218   -0.3412 C   0  0  0  0  0  0  0  0  0  0  0  0
    9.3528    2.8183   -0.7401 O   0  0  0  0  0  0  0  0  0  0  0  0
    8.1113    0.9955    0.2883 C   0  0  0  0  0  0  0  0  0  0  0  0
    6.9370    0.3954    0.6873 C   0  0  0  0  0  0  0  0  0  0  0  0
    4.4821   -1.4931   -0.7120 C   0  0  0  0  0  0  0  0  0  0  0  0
    5.6537   -1.3878   -1.4155 O   0  0  0  0  0  0  0  0  0  0  0  0
    4.0199   -2.6748   -0.5560 O   0  0  0  0  0  0  0  0  0  0  0  0
   -0.2557   -5.0483    2.0969 H   0  0  0  0  0  0  0  0  0  0  0  0
   -1.6068   -5.2581    0.9491 H   0  0  0  0  0  0  0  0  0  0  0  0
    0.0175   -4.8212    0.3579 H   0  0  0  0  0  0  0  0  0  0  0  0
   -1.1163   -2.9680    2.3971 H   0  0  0  0  0  0  0  0  0  0  0  0
   -2.9670   -3.9658    0.6905 H   0  0  0  0  0  0  0  0  0  0  0  0
   -3.0525   -2.3219    1.3265 H   0  0  0  0  0  0  0  0  0  0  0  0
   -2.4178   -2.6452   -0.3395 H   0  0  0  0  0  0  0  0  0  0  0  0
    0.2389   -2.7417   -0.3603 H   0  0  0  0  0  0  0  0  0  0  0  0
    0.9964   -2.6952    1.2962 H   0  0  0  0  0  0  0  0  0  0  0  0
    0.0460   -0.5217    1.7479 H   0  0  0  0  0  0  0  0  0  0  0  0
   -1.3109   -0.6648   -0.9660 H   0  0  0  0  0  0  0  0  0  0  0  0
   -3.0166    2.2008   -0.1033 H   0  0  0  0  0  0  0  0  0  0  0  0
   -3.8288    1.2221   -2.0054 H   0  0  0  0  0  0  0  0  0  0  0  0
   -3.6319   -0.3908   -1.4112 H   0  0  0  0  0  0  0  0  0  0  0  0
   -4.2413    1.3806    1.7302 H   0  0  0  0  0  0  0  0  0  0  0  0
   -4.5406   -0.2299    0.8854 H   0  0  0  0  0  0  0  0  0  0  0  0
   -5.9994   -0.3688   -1.0193 H   0  0  0  0  0  0  0  0  0  0  0  0
   -7.9617    0.5793   -2.2132 H   0  0  0  0  0  0  0  0  0  0  0  0
   -9.7891    2.9525   -1.5041 H   0  0  0  0  0  0  0  0  0  0  0  0
   -7.3431    4.2809   -0.2247 H   0  0  0  0  0  0  0  0  0  0  0  0
   -5.4055    3.3368    0.9505 H   0  0  0  0  0  0  0  0  0  0  0  0
    2.5803   -1.4325    1.3336 H   0  0  0  0  0  0  0  0  0  0  0  0
    3.4218    0.2685   -1.0147 H   0  0  0  0  0  0  0  0  0  0  0  0
    4.6444   -0.1359    1.8167 H   0  0  0  0  0  0  0  0  0  0  0  0
    3.7546    1.2694    1.1747 H   0  0  0  0  0  0  0  0  0  0  0  0
    4.8316    2.8039   -0.3756 H   0  0  0  0  0  0  0  0  0  0  0  0
    6.9798    3.8094   -1.0585 H   0  0  0  0  0  0  0  0  0  0  0  0
    9.6742    2.5971   -1.6786 H   0  0  0  0  0  0  0  0  0  0  0  0
    9.0614    0.4921    0.4702 H   0  0  0  0  0  0  0  0  0  0  0  0
    6.9955   -0.5867    1.1840 H   0  0  0  0  0  0  0  0  0  0  0  0
    5.8672   -0.6581   -2.0816 H   0  0  0  0  0  0  0  0  0  0  0  0
  1  2  1  0
  2  3  1  0
  2  4  1  0
  4  5  1  0
  5  6  1  0
  6  7  1  0
  7  8  2  0
  7  9  1  0
  9 10  1  0
  9 11  1  0
 11 12  1  0
 12 13  2  0
 13 14  1  0
 14 15  2  0
 15 16  1  0
 15 17  1  0
 17 18  2  0
  5 19  1  0
 19 20  2  0
 19 21  1  0
 21 22  1  0
 22 23  1  0
 23 24  1  0
 24 25  2  0
 25 26  1  0
 26 27  2  0
 27 28  1  0
 27 29  1  0
 29 30  2  0
 22 31  1  0
 31 32  1  0
 31 33  2  0
 18 12  1  0
 30 24  1  0
  1 34  1  0
  1 35  1  0
  1 36  1  0
  2 37  1  0
  3 38  1  0
  3 39  1  0
  3 40  1  0
  4 41  1  0
  4 42  1  0
  5 43  1  1
  6 44  1  0
  9 45  1  6
 10 46  1  0
 10 47  1  0
 11 48  1  0
 11 49  1  0
 13 50  1  0
 14 51  1  0
 16 52  1  0
 17 53  1  0
 18 54  1  0
 21 55  1  0
 22 56  1  6
 23 57  1  0
 23 58  1  0
 25 59  1  0
 26 60  1  0
 28 61  1  0
 29 62  1  0
 30 63  1  0
 32 64  1  0
M  END
$$$$
[H]c1c([H])c(F)c([H])c(S(=O)(=O)N([H])[C@]2([H])C([H])([H])C([H])([H])[C@@]([H])(c3c([H])c([H])c(N4C([H])([H])C([H])([H])N(C([H])([H])[H])C([H])([H])C4([H])[H])c([H])c3[H])C([H])([H])C2([H])[H])c1[H]
     RDKit          3D

 60 63  0  0  0  0  0  0  0  0999 V2000
   -8.6536   -0.7987   -0.5557 C   0  0  0  0  0  0  0  0  0  0  0  0
   -7.3884   -1.1070   -1.1964 N   0  0  0  0  0  0  0  0  0  0  0  0
   -6.6523   -1.9954   -0.3571 C   0  0  0  0  0  0  0  0  0  0  0  0
   -5.6683   -1.2911    0.5573 C   0  0  0  0  0  0  0  0  0  0  0  0
   -4.7389   -0.5798   -0.2792 N   0  0  0  0  0  0  0  0  0  0  0  0
   -5.2119   -0.0261   -1.5239 C   0  0  0  0  0  0  0  0  0  0  0  0
   -6.7154    0.1294   -1.4708 C   0  0  0  0  0  0  0  0  0  0  0  0
   -3.3849   -0.4206    0.1114 C   0  0  0  0  0  0  0  0  0  0  0  0
   -2.8778   -0.8222    1.3258 C   0  0  0  0  0  0  0  0  0  0  0  0
   -1.5349   -0.6424    1.6457 C   0  0  0  0  0  0  0  0  0  0  0  0
   -0.6433   -0.0577    0.7748 C   0  0  0  0  0  0  0  0  0  0  0  0
   -1.1372    0.3488   -0.4428 C   0  0  0  0  0  0  0  0  0  0  0  0
   -2.4646    0.1729   -0.7636 C   0  0  0  0  0  0  0  0  0  0  0  0
    0.7562    0.0950    1.1841 C   0  0  1  0  0  0  0  0  0  0  0  0
    1.7178   -0.6593    0.2952 C   0  0  0  0  0  0  0  0  0  0  0  0
    3.1139   -0.3196    0.8053 C   0  0  0  0  0  0  0  0  0  0  0  0
    3.4000    1.1091    0.3915 C   0  0  1  0  0  0  0  0  0  0  0  0
    2.1609    1.9349    0.2239 C   0  0  0  0  0  0  0  0  0  0  0  0
    1.0801    1.5761    1.2245 C   0  0  0  0  0  0  0  0  0  0  0  0
    4.2981    1.7586    1.2913 N   0  0  0  0  0  0  0  0  0  0  0  0
    5.7933    2.1902    0.5866 S   0  0  0  0  0  0  0  0  0  0  0  0
    5.5203    3.0591   -0.6143 O   0  0  0  0  0  0  0  0  0  0  0  0
    6.6518    2.9495    1.5497 O   0  0  0  0  0  0  0  0  0  0  0  0
    6.6239    0.7658    0.0391 C   0  0  0  0  0  0  0  0  0  0  0  0
    7.4595    0.1226    0.9532 C   0  0  0  0  0  0  0  0  0  0  0  0
    8.1469   -1.0086    0.5870 C   0  0  0  0  0  0  0  0  0  0  0  0
    8.0057   -1.5025   -0.6873 C   0  0  0  0  0  0  0  0  0  0  0  0
    7.1905   -0.8959   -1.6182 C   0  0  0  0  0  0  0  0  0  0  0  0
    7.0362   -1.3613   -2.8718 F   0  0  0  0  0  0  0  0  0  0  0  0
    6.5139    0.2394   -1.2171 C   0  0  0  0  0  0  0  0  0  0  0  0
   -8.5715   -0.8747    0.5473 H   0  0  0  0  0  0  0  0  0  0  0  0
   -8.9779    0.2525   -0.7892 H   0  0  0  0  0  0  0  0  0  0  0  0
   -9.4623   -1.4910   -0.8673 H   0  0  0  0  0  0  0  0  0  0  0  0
   -6.0204   -2.6588   -1.0175 H   0  0  0  0  0  0  0  0  0  0  0  0
   -7.2702   -2.6798    0.2433 H   0  0  0  0  0  0  0  0  0  0  0  0
   -5.2297   -2.0007    1.2561 H   0  0  0  0  0  0  0  0  0  0  0  0
   -6.2258   -0.5006    1.1405 H   0  0  0  0  0  0  0  0  0  0  0  0
   -4.8079    1.0257   -1.5601 H   0  0  0  0  0  0  0  0  0  0  0  0
   -4.8638   -0.5395   -2.4183 H   0  0  0  0  0  0  0  0  0  0  0  0
   -7.0258    0.4608   -2.4958 H   0  0  0  0  0  0  0  0  0  0  0  0
   -7.0454    0.8880   -0.7630 H   0  0  0  0  0  0  0  0  0  0  0  0
   -3.5367   -1.2884    2.0550 H   0  0  0  0  0  0  0  0  0  0  0  0
   -1.1831   -0.9808    2.6271 H   0  0  0  0  0  0  0  0  0  0  0  0
   -0.4832    0.8114   -1.1599 H   0  0  0  0  0  0  0  0  0  0  0  0
   -2.8524    0.4955   -1.7294 H   0  0  0  0  0  0  0  0  0  0  0  0
    0.8939   -0.3085    2.2027 H   0  0  0  0  0  0  0  0  0  0  0  0
    1.4880   -1.7236    0.3508 H   0  0  0  0  0  0  0  0  0  0  0  0
    1.6743   -0.3280   -0.7558 H   0  0  0  0  0  0  0  0  0  0  0  0
    3.8820   -0.9860    0.3925 H   0  0  0  0  0  0  0  0  0  0  0  0
    3.0563   -0.4154    1.9292 H   0  0  0  0  0  0  0  0  0  0  0  0
    3.8950    1.0321   -0.6091 H   0  0  0  0  0  0  0  0  0  0  0  0
    2.3843    3.0184    0.3961 H   0  0  0  0  0  0  0  0  0  0  0  0
    1.6948    1.8359   -0.7905 H   0  0  0  0  0  0  0  0  0  0  0  0
    1.3534    1.8924    2.2374 H   0  0  0  0  0  0  0  0  0  0  0  0
    0.1846    2.2024    0.9443 H   0  0  0  0  0  0  0  0  0  0  0  0
    3.8709    2.5263    1.8560 H   0  0  0  0  0  0  0  0  0  0  0  0
    7.5783    0.5074    1.9683 H   0  0  0  0  0  0  0  0  0  0  0  0
    8.7841   -1.4708    1.3380 H   0  0  0  0  0  0  0  0  0  0  0  0
    8.5598   -2.4063   -0.9673 H   0  0  0  0  0  0  0  0  0  0  0  0
    5.8586    0.7408   -1.9442 H   0  0  0  0  0  0  0  0  0  0  0  0
  1  2  1  0
  2  3  1  0
  3  4  1  0
  4  5  1  0
  5  6  1  0
  6  7  1  0
  5  8  1  0
  8  9  2  0
  9 10  1  0
 10 11  2  0
 11 12  1  0
 12 13  2  0
 11 14  1  0
 14 15  1  0
 15 16  1  0
 16 17  1  0
 17 18  1  0
 18 19  1  0
 17 20  1  0
 20 21  1  0
 21 22  2  0
 21 23  2  0
 21 24  1  0
 24 25  2  0
 25 26  1  0
 26 27  2  0
 27 28  1  0
 28 29  1  0
 28 30  2  0
  7  2  1  0
 13  8  1  0
 19 14  1  0
 30 24  1  0
  1 31  1  0
  1 32  1  0
  1 33  1  0
  3 34  1  0
  3 35  1  0
  4 36  1  0
  4 37  1  0
  6 38  1  0
  6 39  1  0
  7 40  1  0
  7 41  1  0
  9 42  1  0
 10 43  1  0
 12 44  1  0
 13 45  1  0
 14 46  1  1
 15 47  1  0
 15 48  1  0
 16 49  1  0
 16 50  1  0
 17 51  1  6
 18 52  1  0
 18 53  1  0
 19 54  1  0
 19 55  1  0
 20 56  1  0
 25 57  1  0
 26 58  1  0
 27 59  1  0
 30 60  1  0
M  END
$$$$
[H]ON([H])C(=O)[C@]1([H])N(S(=O)(=O)c2c([H])c([H])c(OC([H])([H])[H])c([H])c2[H])C([H])([H])[C@]([H])(c2c([H])c([H])c([H])c([H])c2[H])C1([H])[H]
     RDKit          3D

 46 48  0  0  0  0  0  0  0  0999 V2000
    5.9933   -1.3181    2.4818 C   0  0  0  0  0  0  0  0  0  0  0  0
    5.6021   -0.1550    1.8222 O   0  0  0  0  0  0  0  0  0  0  0  0
    4.4904   -0.1200    0.9679 C   0  0  0  0  0  0  0  0  0  0  0  0
    4.1381    1.0497    0.3320 C   0  0  0  0  0  0  0  0  0  0  0  0
    3.0338    1.0781   -0.5176 C   0  0  0  0  0  0  0  0  0  0  0  0
    2.2584   -0.0214   -0.7608 C   0  0  0  0  0  0  0  0  0  0  0  0
    2.6252   -1.2050   -0.1082 C   0  0  0  0  0  0  0  0  0  0  0  0
    3.7200   -1.2252    0.7304 C   0  0  0  0  0  0  0  0  0  0  0  0
    0.8760   -0.0091   -1.8292 S   0  0  0  0  0  0  0  0  0  0  0  0
    1.1967    0.6198   -3.1336 O   0  0  0  0  0  0  0  0  0  0  0  0
    0.7089   -1.5160   -2.2225 O   0  0  0  0  0  0  0  0  0  0  0  0
   -0.5689    0.4081   -1.0967 N   0  0  0  0  0  0  0  0  0  0  0  0
   -0.8387   -0.6241   -0.0623 C   0  0  0  0  0  0  0  0  0  0  0  0
   -1.9641   -0.0771    0.7523 C   0  0  1  0  0  0  0  0  0  0  0  0
   -2.0965    1.3460    0.3183 C   0  0  0  0  0  0  0  0  0  0  0  0
   -0.7995    1.5799   -0.4263 C   0  0  2  0  0  0  0  0  0  0  0  0
   -0.7490    2.9143   -1.0552 C   0  0  0  0  0  0  0  0  0  0  0  0
   -1.4007    3.7805   -0.3129 O   0  0  0  0  0  0  0  0  0  0  0  0
   -0.1620    3.3335   -2.2067 N   0  0  0  0  0  0  0  0  0  0  0  0
    0.3849    3.7298   -3.2820 O   0  0  0  0  0  0  0  0  0  0  0  0
   -3.2149   -0.8592    0.5643 C   0  0  0  0  0  0  0  0  0  0  0  0
   -3.9146   -1.3090    1.6573 C   0  0  0  0  0  0  0  0  0  0  0  0
   -5.0808   -2.0611    1.5226 C   0  0  0  0  0  0  0  0  0  0  0  0
   -5.5100   -2.3392    0.2508 C   0  0  0  0  0  0  0  0  0  0  0  0
   -4.8126   -1.8899   -0.8598 C   0  0  0  0  0  0  0  0  0  0  0  0
   -3.6606   -1.1463   -0.7055 C   0  0  0  0  0  0  0  0  0  0  0  0
    5.4189   -1.4728    3.4260 H   0  0  0  0  0  0  0  0  0  0  0  0
    7.0966   -1.2340    2.7088 H   0  0  0  0  0  0  0  0  0  0  0  0
    5.8500   -2.1999    1.8445 H   0  0  0  0  0  0  0  0  0  0  0  0
    4.7097    1.9348    0.4871 H   0  0  0  0  0  0  0  0  0  0  0  0
    2.7469    1.9945   -1.0318 H   0  0  0  0  0  0  0  0  0  0  0  0
    2.0234   -2.0813   -0.2968 H   0  0  0  0  0  0  0  0  0  0  0  0
    3.9574   -2.1537    1.2067 H   0  0  0  0  0  0  0  0  0  0  0  0
   -1.0643   -1.5834   -0.5423 H   0  0  0  0  0  0  0  0  0  0  0  0
    0.1114   -0.7040    0.4882 H   0  0  0  0  0  0  0  0  0  0  0  0
   -1.6850   -0.1124    1.8183 H   0  0  0  0  0  0  0  0  0  0  0  0
   -2.1015    1.9845    1.2442 H   0  0  0  0  0  0  0  0  0  0  0  0
   -2.9961    1.5782   -0.2374 H   0  0  0  0  0  0  0  0  0  0  0  0
   -0.0378    1.6328    0.4310 H   0  0  0  0  0  0  0  0  0  0  0  0
   -0.6420    4.5868   -2.0515 H   0  0  0  0  0  0  0  0  0  0  0  0
    0.2562    3.2028   -4.1128 H   0  0  0  0  0  0  0  0  0  0  0  0
   -3.6097   -1.1073    2.6686 H   0  0  0  0  0  0  0  0  0  0  0  0
   -5.6363   -2.4168    2.3995 H   0  0  0  0  0  0  0  0  0  0  0  0
   -6.4243   -2.9340    0.1233 H   0  0  0  0  0  0  0  0  0  0  0  0
   -5.1538   -2.1117   -1.8575 H   0  0  0  0  0  0  0  0  0  0  0  0
   -3.0745   -0.7673   -1.5367 H   0  0  0  0  0  0  0  0  0  0  0  0
  1  2  1  0
  2  3  1  0
  3  4  2  0
  4  5  1  0
  5  6  2  0
  6  7  1  0
  7  8  2  0
  6  9  1  0
  9 10  2  0
  9 11  2  0
  9 12  1  0
 12 13  1  0
 13 14  1  0
 14 15  1  0
 15 16  1  0
 16 17  1  0
 17 18  2  0
 17 19  1  0
 19 20  1  0
 14 21  1  0
 21 22  2  0
 22 23  1  0
 23 24  2  0
 24 25  1  0
 25 26  2  0
  8  3  1  0
 16 12  1  0
 26 21  1  0
  1 27  1  0
  1 28  1  0
  1 29  1  0
  4 30  1  0
  5 31  1  0
  7 32  1  0
  8 33  1  0
 13 34  1  0
 13 35  1  0
 14 36  1  1
 15 37  1  0
 15 38  1  0
 16 39  1  1
 19 40  1  0
 20 41  1  0
 22 42  1  0
 23 43  1  0
 24 44  1  0
 25 45  1  0
 26 46  1  0
M  END
$$$$
[H]OC(=O)c1c([H])c([H])c(-c2c([H])c([H])c(C(=O)N([H])c3c([H])c([H])c([H])c(C(=O)O[H])c3[H])c([H])c2[H])c([H])c1[H]
     RDKit          3D

 42 44  0  0  0  0  0  0  0  0999 V2000
   -8.3775    1.1464    2.0128 O   0  0  0  0  0  0  0  0  0  0  0  0
   -8.0048    0.4927    0.8542 C   0  0  0  0  0  0  0  0  0  0  0  0
   -8.9304    0.0936    0.0944 O   0  0  0  0  0  0  0  0  0  0  0  0
   -6.6159    0.2857    0.5450 C   0  0  0  0  0  0  0  0  0  0  0  0
   -6.1896   -0.3665   -0.6093 C   0  0  0  0  0  0  0  0  0  0  0  0
   -4.8419   -0.5426   -0.8652 C   0  0  0  0  0  0  0  0  0  0  0  0
   -3.8803   -0.0841    0.0034 C   0  0  0  0  0  0  0  0  0  0  0  0
   -4.3195    0.5578    1.1390 C   0  0  0  0  0  0  0  0  0  0  0  0
   -5.6535    0.7467    1.4186 C   0  0  0  0  0  0  0  0  0  0  0  0
   -2.4397   -0.2535   -0.2380 C   0  0  0  0  0  0  0  0  0  0  0  0
   -1.9504   -1.3434   -0.9086 C   0  0  0  0  0  0  0  0  0  0  0  0
   -0.5968   -1.4916   -1.1297 C   0  0  0  0  0  0  0  0  0  0  0  0
    0.3216   -0.5611   -0.6919 C   0  0  0  0  0  0  0  0  0  0  0  0
   -0.1719    0.5333   -0.0185 C   0  0  0  0  0  0  0  0  0  0  0  0
   -1.5437    0.6917    0.2102 C   0  0  0  0  0  0  0  0  0  0  0  0
    1.7726   -0.7489   -0.9526 C   0  0  0  0  0  0  0  0  0  0  0  0
    2.0002   -1.5983   -1.8664 O   0  0  0  0  0  0  0  0  0  0  0  0
    2.7409   -0.0433   -0.2412 N   0  0  0  0  0  0  0  0  0  0  0  0
    4.1453   -0.1142   -0.3799 C   0  0  0  0  0  0  0  0  0  0  0  0
    4.8051   -0.8428   -1.3447 C   0  0  0  0  0  0  0  0  0  0  0  0
    6.2003   -0.8751   -1.4193 C   0  0  0  0  0  0  0  0  0  0  0  0
    6.9476   -0.1678   -0.5149 C   0  0  0  0  0  0  0  0  0  0  0  0
    6.3350    0.5775    0.4702 C   0  0  0  0  0  0  0  0  0  0  0  0
    4.9687    0.5890    0.5170 C   0  0  0  0  0  0  0  0  0  0  0  0
    7.1320    1.3321    1.4364 C   0  0  0  0  0  0  0  0  0  0  0  0
    8.5272    1.2822    1.3441 O   0  0  0  0  0  0  0  0  0  0  0  0
    6.5413    2.0049    2.3239 O   0  0  0  0  0  0  0  0  0  0  0  0
   -8.5606    0.6732    2.8976 H   0  0  0  0  0  0  0  0  0  0  0  0
   -6.9611   -0.7222   -1.2842 H   0  0  0  0  0  0  0  0  0  0  0  0
   -4.5548   -1.0520   -1.7691 H   0  0  0  0  0  0  0  0  0  0  0  0
   -3.5977    0.9382    1.8571 H   0  0  0  0  0  0  0  0  0  0  0  0
   -5.9262    1.2662    2.3410 H   0  0  0  0  0  0  0  0  0  0  0  0
   -2.6062   -2.1190   -1.2843 H   0  0  0  0  0  0  0  0  0  0  0  0
   -0.2264   -2.3749   -1.6698 H   0  0  0  0  0  0  0  0  0  0  0  0
    0.5113    1.2818    0.3352 H   0  0  0  0  0  0  0  0  0  0  0  0
   -1.8929    1.5679    0.7449 H   0  0  0  0  0  0  0  0  0  0  0  0
    2.3803    0.6298    0.4974 H   0  0  0  0  0  0  0  0  0  0  0  0
    4.2768   -1.4082   -2.0758 H   0  0  0  0  0  0  0  0  0  0  0  0
    6.7138   -1.4475   -2.1769 H   0  0  0  0  0  0  0  0  0  0  0  0
    8.0255   -0.1795   -0.5550 H   0  0  0  0  0  0  0  0  0  0  0  0
    4.4671    1.1719    1.2885 H   0  0  0  0  0  0  0  0  0  0  0  0
    9.0294    0.4740    1.7228 H   0  0  0  0  0  0  0  0  0  0  0  0
  1  2  1  0
  2  3  2  0
  2  4  1  0
  4  5  2  0
  5  6  1  0
  6  7  2  0
  7  8  1  0
  8  9  2  0
  7 10  1  0
 10 11  2  0
 11 12  1  0
 12 13  2  0
 13 14  1  0
 14 15  2  0
 13 16  1  0
 16 17  2  0
 16 18  1  0
 18 19  1  0
 19 20  2  0
 20 21  1  0
 21 22  2  0
 22 23  1  0
 23 24  2  0
 23 25  1  0
 25 26  1  0
 25 27  2  0
  9  4  1  0
 15 10  1  0
 24 19  1  0
  1 28  1  0
  5 29  1  0
  6 30  1  0
  8 31  1  0
  9 32  1  0
 11 33  1  0
 12 34  1  0
 14 35  1  0
 15 36  1  0
 18 37  1  0
 20 38  1  0
 21 39  1  0
 22 40  1  0
 24 41  1  0
 26 42  1  0
M  END
$$$$
[H]c1nc(N([H])[H])c2c(-c3c([H])c([H])c([H])c(N([H])C(=O)N([H])c4c([H])c([H])c([H])c(C(F)(F)F)c4[H])c3[H])c([H])n([C@]3([H])C([H])([H])C([H])([H])[C@@]([H])(C(=O)N([H])[H])C([H])([H])C3([H])[H])c2n1
     RDKit          3D

 65 69  0  0  0  0  0  0  0  0999 V2000
    0.1235   -3.9361   -0.6131 N   0  0  0  0  0  0  0  0  0  0  0  0
   -1.0394   -3.6228    0.1821 C   0  0  0  0  0  0  0  0  0  0  0  0
   -1.3994   -4.3353    1.2048 N   0  0  0  0  0  0  0  0  0  0  0  0
   -2.5138   -4.0574    1.9691 C   0  0  0  0  0  0  0  0  0  0  0  0
   -3.2469   -2.9841    1.6064 N   0  0  0  0  0  0  0  0  0  0  0  0
   -2.9396   -2.1913    0.5538 C   0  0  0  0  0  0  0  0  0  0  0  0
   -3.5561   -1.0977    0.0504 N   0  0  0  0  0  0  0  0  0  0  0  0
   -2.8135   -0.7066   -1.0286 C   0  0  0  0  0  0  0  0  0  0  0  0
   -1.7532   -1.5716   -1.1550 C   0  0  0  0  0  0  0  0  0  0  0  0
   -0.6226   -1.4761   -2.0895 C   0  0  0  0  0  0  0  0  0  0  0  0
   -0.6483   -1.7695   -3.4139 C   0  0  0  0  0  0  0  0  0  0  0  0
    0.4491   -1.6497   -4.2398 C   0  0  0  0  0  0  0  0  0  0  0  0
    1.6532   -1.2127   -3.7420 C   0  0  0  0  0  0  0  0  0  0  0  0
    1.7462   -0.8871   -2.3705 C   0  0  0  0  0  0  0  0  0  0  0  0
    2.8652   -0.5460   -1.7888 N   0  0  0  0  0  0  0  0  0  0  0  0
    3.9654    0.0746   -1.1145 C   0  0  0  0  0  0  0  0  0  0  0  0
    3.8859    1.2162   -0.6817 O   0  0  0  0  0  0  0  0  0  0  0  0
    5.2225   -0.6104   -0.9105 N   0  0  0  0  0  0  0  0  0  0  0  0
    6.3017    0.0153   -0.2539 C   0  0  0  0  0  0  0  0  0  0  0  0
    7.2773   -0.8485    0.2671 C   0  0  0  0  0  0  0  0  0  0  0  0
    8.3752   -0.3236    0.8941 C   0  0  0  0  0  0  0  0  0  0  0  0
    8.5609    1.0335    1.0381 C   0  0  0  0  0  0  0  0  0  0  0  0
    7.6195    1.8973    0.5371 C   0  0  0  0  0  0  0  0  0  0  0  0
    6.4979    1.3572   -0.1084 C   0  0  0  0  0  0  0  0  0  0  0  0
    7.7561    3.3815    0.6862 C   0  0  0  0  0  0  0  0  0  0  0  0
    6.7058    3.8109    1.5133 F   0  0  0  0  0  0  0  0  0  0  0  0
    8.9592    3.6202    1.3491 F   0  0  0  0  0  0  0  0  0  0  0  0
    7.6729    4.0128   -0.5148 F   0  0  0  0  0  0  0  0  0  0  0  0
    0.5862   -1.0305   -1.5762 C   0  0  0  0  0  0  0  0  0  0  0  0
   -1.8048   -2.5240   -0.1718 C   0  0  0  0  0  0  0  0  0  0  0  0
   -4.7567   -0.4895    0.6228 C   0  0  1  0  0  0  0  0  0  0  0  0
   -4.4146    0.3954    1.7856 C   0  0  0  0  0  0  0  0  0  0  0  0
   -4.3434    1.8467    1.5580 C   0  0  0  0  0  0  0  0  0  0  0  0
   -5.0784    2.4190    0.4134 C   0  0  1  0  0  0  0  0  0  0  0  0
   -5.4647    1.5290   -0.6968 C   0  0  0  0  0  0  0  0  0  0  0  0
   -5.6911    0.0981   -0.3744 C   0  0  0  0  0  0  0  0  0  0  0  0
   -6.2463    3.2307    0.9724 C   0  0  0  0  0  0  0  0  0  0  0  0
   -5.8670    4.3958    1.6817 N   0  0  0  0  0  0  0  0  0  0  0  0
   -7.4284    2.9269    0.8433 O   0  0  0  0  0  0  0  0  0  0  0  0
    0.1179   -4.2716   -1.5767 H   0  0  0  0  0  0  0  0  0  0  0  0
    1.0553   -3.7978   -0.1527 H   0  0  0  0  0  0  0  0  0  0  0  0
   -2.7113   -4.7233    2.7727 H   0  0  0  0  0  0  0  0  0  0  0  0
   -3.0004    0.1128   -1.6773 H   0  0  0  0  0  0  0  0  0  0  0  0
   -1.5809   -2.1153   -3.8540 H   0  0  0  0  0  0  0  0  0  0  0  0
    0.4305   -1.8876   -5.2923 H   0  0  0  0  0  0  0  0  0  0  0  0
    2.5637   -1.1103   -4.3337 H   0  0  0  0  0  0  0  0  0  0  0  0
    2.3759    0.7888   -1.8833 H   0  0  0  0  0  0  0  0  0  0  0  0
    5.2799   -1.5819   -1.2643 H   0  0  0  0  0  0  0  0  0  0  0  0
    7.1320   -1.9213    0.1631 H   0  0  0  0  0  0  0  0  0  0  0  0
    9.1278   -1.0183    1.2879 H   0  0  0  0  0  0  0  0  0  0  0  0
    9.4397    1.3939    1.5502 H   0  0  0  0  0  0  0  0  0  0  0  0
    5.8106    2.0747   -0.5142 H   0  0  0  0  0  0  0  0  0  0  0  0
    0.6541   -0.7864   -0.5195 H   0  0  0  0  0  0  0  0  0  0  0  0
   -5.3201   -1.3730    1.0895 H   0  0  0  0  0  0  0  0  0  0  0  0
   -3.3764    0.0594    2.1251 H   0  0  0  0  0  0  0  0  0  0  0  0
   -5.0458    0.1618    2.6648 H   0  0  0  0  0  0  0  0  0  0  0  0
   -4.7209    2.3604    2.5022 H   0  0  0  0  0  0  0  0  0  0  0  0
   -3.2758    2.2389    1.5111 H   0  0  0  0  0  0  0  0  0  0  0  0
   -4.4463    3.2530   -0.0469 H   0  0  0  0  0  0  0  0  0  0  0  0
   -6.4639    1.9194   -1.0923 H   0  0  0  0  0  0  0  0  0  0  0  0
   -4.7518    1.6470   -1.5584 H   0  0  0  0  0  0  0  0  0  0  0  0
   -6.7398    0.0073    0.0433 H   0  0  0  0  0  0  0  0  0  0  0  0
   -5.6945   -0.4892   -1.2987 H   0  0  0  0  0  0  0  0  0  0  0  0
   -6.5504    5.1515    1.7965 H   0  0  0  0  0  0  0  0  0  0  0  0
   -4.9049    4.5165    2.0956 H   0  0  0  0  0  0  0  0  0  0  0  0
  1  2  1  0
  2  3  2  0
  3  4  1  0
  4  5  2  0
  5  6  1  0
  6  7  1  0
  7  8  1  0
  8  9  2  0
  9 10  1  0
 10 11  2  0
 11 12  1  0
 12 13  2  0
 13 14  1  0
 14 15  1  0
 15 16  1  0
 16 17  2  0
 16 18  1  0
 18 19  1  0
 19 20  2  0
 20 21  1  0
 21 22  2  0
 22 23  1  0
 23 24  2  0
 23 25  1  0
 25 26  1  0
 25 27  1  0
 25 28  1  0
 14 29  2  0
  9 30  1  0
  7 31  1  0
 31 32  1  0
 32 33  1  0
 33 34  1  0
 34 35  1  0
 35 36  1  0
 34 37  1  0
 37 38  1  0
 37 39  2  0
 30  2  1  0
 36 31  1  0
 30  6  2  0
 29 10  1  0
 24 19  1  0
  1 40  1  0
  1 41  1  0
  4 42  1  0
  8 43  1  0
 11 44  1  0
 12 45  1  0
 13 46  1  0
 15 47  1  0
 18 48  1  0
 20 49  1  0
 21 50  1  0
 22 51  1  0
 24 52  1  0
 29 53  1  0
 31 54  1  1
 32 55  1  0
 32 56  1  0
 33 57  1  0
 33 58  1  0
 34 59  1  6
 35 60  1  0
 35 61  1  0
 36 62  1  0
 36 63  1  0
 38 64  1  0
 38 65  1  0
M  END
$$$$
[H]c1nc2c([H])c(N([H])C(=O)c3c([H])c([H])c([H])c([H])c3[H])c(OC([H])([H])[H])c([H])c2c(Oc2c([H])c([H])c(N([H])C(=O)c3nn(C([H])([H])[H])c4c([H])c([H])c([H])c([H])c4c3=O)c([H])c2F)c1[H]
     RDKit          3D

 68 73  0  0  0  0  0  0  0  0999 V2000
   -3.9040   -2.4057    1.2444 C   0  0  0  0  0  0  0  0  0  0  0  0
   -4.9569   -1.5335    0.9040 O   0  0  0  0  0  0  0  0  0  0  0  0
   -4.7342   -0.2957    0.2963 C   0  0  0  0  0  0  0  0  0  0  0  0
   -3.4352    0.0712    0.0274 C   0  0  0  0  0  0  0  0  0  0  0  0
   -3.2185    1.3008   -0.5762 C   0  0  0  0  0  0  0  0  0  0  0  0
   -1.8802    1.6615   -0.8477 C   0  0  0  0  0  0  0  0  0  0  0  0
   -0.9252    0.8049   -0.5069 O   0  0  0  0  0  0  0  0  0  0  0  0
    0.3815    0.6058   -0.5347 C   0  0  0  0  0  0  0  0  0  0  0  0
    1.3451    1.4139   -1.0833 C   0  0  0  0  0  0  0  0  0  0  0  0
    2.7087    1.0873   -1.0434 C   0  0  0  0  0  0  0  0  0  0  0  0
    3.1582   -0.0520   -0.4568 C   0  0  0  0  0  0  0  0  0  0  0  0
    4.5258   -0.4381   -0.3369 N   0  0  0  0  0  0  0  0  0  0  0  0
    5.6098    0.4460   -0.3219 C   0  0  0  0  0  0  0  0  0  0  0  0
    5.4024    1.7164   -0.4167 O   0  0  0  0  0  0  0  0  0  0  0  0
    7.0169    0.0935   -0.2082 C   0  0  0  0  0  0  0  0  0  0  0  0
    7.9719    1.0651   -0.3242 N   0  0  0  0  0  0  0  0  0  0  0  0
    9.2451    0.8416   -0.2259 N   0  0  0  0  0  0  0  0  0  0  0  0
   10.2095    1.9201   -0.3602 C   0  0  0  0  0  0  0  0  0  0  0  0
    9.7131   -0.4048    0.0041 C   0  0  0  0  0  0  0  0  0  0  0  0
   11.0755   -0.6596    0.1111 C   0  0  0  0  0  0  0  0  0  0  0  0
   11.5532   -1.9510    0.3482 C   0  0  0  0  0  0  0  0  0  0  0  0
   10.6711   -2.9993    0.4807 C   0  0  0  0  0  0  0  0  0  0  0  0
    9.3110   -2.7301    0.3715 C   0  0  0  0  0  0  0  0  0  0  0  0
    8.8451   -1.4500    0.1367 C   0  0  0  0  0  0  0  0  0  0  0  0
    7.4737   -1.1761    0.0253 C   0  0  0  0  0  0  0  0  0  0  0  0
    6.7264   -2.1722    0.1569 O   0  0  0  0  0  0  0  0  0  0  0  0
    2.1931   -0.8874    0.1057 C   0  0  0  0  0  0  0  0  0  0  0  0
    0.8630   -0.5744    0.0696 C   0  0  0  0  0  0  0  0  0  0  0  0
   -0.0234   -1.4381    0.6427 F   0  0  0  0  0  0  0  0  0  0  0  0
   -1.7273    2.8926   -1.4503 C   0  0  0  0  0  0  0  0  0  0  0  0
   -2.8415    3.6870   -1.7501 C   0  0  0  0  0  0  0  0  0  0  0  0
   -4.0794    3.2964   -1.4715 N   0  0  0  0  0  0  0  0  0  0  0  0
   -4.2900    2.0891   -0.8762 C   0  0  0  0  0  0  0  0  0  0  0  0
   -5.6028    1.7128   -0.6015 C   0  0  0  0  0  0  0  0  0  0  0  0
   -5.8411    0.5028   -0.0057 C   0  0  0  0  0  0  0  0  0  0  0  0
   -7.1166    0.0177    0.3168 N   0  0  0  0  0  0  0  0  0  0  0  0
   -8.3710    0.5976    0.1322 C   0  0  0  0  0  0  0  0  0  0  0  0
   -8.4879    1.7351   -0.3950 O   0  0  0  0  0  0  0  0  0  0  0  0
   -9.6280   -0.0585    0.5305 C   0  0  0  0  0  0  0  0  0  0  0  0
   -9.6754   -1.4060    0.7417 C   0  0  0  0  0  0  0  0  0  0  0  0
  -10.8760   -2.0234    1.1260 C   0  0  0  0  0  0  0  0  0  0  0  0
  -12.0196   -1.2769    1.2944 C   0  0  0  0  0  0  0  0  0  0  0  0
  -11.9739    0.0946    1.0801 C   0  0  0  0  0  0  0  0  0  0  0  0
  -10.7914    0.6919    0.7032 C   0  0  0  0  0  0  0  0  0  0  0  0
   -3.3727   -2.1205    2.1501 H   0  0  0  0  0  0  0  0  0  0  0  0
   -4.3148   -3.4354    1.4153 H   0  0  0  0  0  0  0  0  0  0  0  0
   -3.1996   -2.5066    0.3722 H   0  0  0  0  0  0  0  0  0  0  0  0
   -2.6199   -0.5653    0.2723 H   0  0  0  0  0  0  0  0  0  0  0  0
    1.0988    2.3209   -1.5670 H   0  0  0  0  0  0  0  0  0  0  0  0
    3.4208    1.7670   -1.5184 H   0  0  0  0  0  0  0  0  0  0  0  0
    4.6830   -1.4602   -0.2693 H   0  0  0  0  0  0  0  0  0  0  0  0
    9.6741    2.8401   -0.6994 H   0  0  0  0  0  0  0  0  0  0  0  0
   10.9272    1.6030   -1.1651 H   0  0  0  0  0  0  0  0  0  0  0  0
   10.7006    2.1294    0.5967 H   0  0  0  0  0  0  0  0  0  0  0  0
   11.7745    0.1651    0.0068 H   0  0  0  0  0  0  0  0  0  0  0  0
   12.6190   -2.0595    0.4172 H   0  0  0  0  0  0  0  0  0  0  0  0
   11.0261   -3.9871    0.6610 H   0  0  0  0  0  0  0  0  0  0  0  0
    8.5727   -3.5221    0.4688 H   0  0  0  0  0  0  0  0  0  0  0  0
    2.5559   -1.8109    0.5813 H   0  0  0  0  0  0  0  0  0  0  0  0
   -0.7514    3.2652   -1.6946 H   0  0  0  0  0  0  0  0  0  0  0  0
   -2.6768    4.6501   -2.2246 H   0  0  0  0  0  0  0  0  0  0  0  0
   -6.3901    2.3902   -0.8694 H   0  0  0  0  0  0  0  0  0  0  0  0
   -7.1441   -0.9474    0.7848 H   0  0  0  0  0  0  0  0  0  0  0  0
   -8.7901   -2.0062    0.6096 H   0  0  0  0  0  0  0  0  0  0  0  0
  -10.8737   -3.1066    1.2855 H   0  0  0  0  0  0  0  0  0  0  0  0
  -12.9456   -1.7718    1.5938 H   0  0  0  0  0  0  0  0  0  0  0  0
  -12.8620    0.6650    1.2121 H   0  0  0  0  0  0  0  0  0  0  0  0
  -10.7125    1.7755    0.5242 H   0  0  0  0  0  0  0  0  0  0  0  0
  1  2  1  0
  2  3  1  0
  3  4  2  0
  4  5  1  0
  5  6  2  0
  6  7  1  0
  7  8  1  0
  8  9  2  0
  9 10  1  0
 10 11  2  0
 11 12  1  0
 12 13  1  0
 13 14  2  0
 13 15  1  0
 15 16  2  0
 16 17  1  0
 17 18  1  0
 17 19  1  0
 19 20  2  0
 20 21  1  0
 21 22  2  0
 22 23  1  0
 23 24  2  0
 24 25  1  0
 25 26  2  0
 11 27  1  0
 27 28  2  0
 28 29  1  0
  6 30  1  0
 30 31  2  0
 31 32  1  0
 32 33  2  0
 33 34  1  0
 34 35  2  0
 35 36  1  0
 36 37  1  0
 37 38  2  0
 37 39  1  0
 39 40  2  0
 40 41  1  0
 41 42  2  0
 42 43  1  0
 43 44  2  0
 35  3  1  0
 44 39  1  0
 33  5  1  0
 28  8  1  0
 25 15  1  0
 24 19  1  0
  1 45  1  0
  1 46  1  0
  1 47  1  0
  4 48  1  0
  9 49  1  0
 10 50  1  0
 12 51  1  0
 18 52  1  0
 18 53  1  0
 18 54  1  0
 20 55  1  0
 21 56  1  0
 22 57  1  0
 23 58  1  0
 27 59  1  0
 30 60  1  0
 31 61  1  0
 34 62  1  0
 36 63  1  0
 40 64  1  0
 41 65  1  0
 42 66  1  0
 43 67  1  0
 44 68  1  0
M  END
$$$$
[H]c1c([H])c(C(F)(F)F)c([H])c([H])c1N([H])C(=O)N1C([H])([H])C([H])([H])C([H])(N([H])C(=O)N([H])c2c([H])c([H])c(C(F)(F)F)c([H])c2[H])C([H])([H])C1([H])[H]
     RDKit          3D

 53 55  0  0  0  0  0  0  0  0999 V2000
   -9.7622    1.5060   -0.9469 F   0  0  0  0  0  0  0  0  0  0  0  0
   -9.1623    1.8717    0.2150 C   0  0  0  0  0  0  0  0  0  0  0  0
   -9.7423    1.2241    1.3328 F   0  0  0  0  0  0  0  0  0  0  0  0
   -9.1592    3.1983    0.4746 F   0  0  0  0  0  0  0  0  0  0  0  0
   -7.7458    1.3989    0.1845 C   0  0  0  0  0  0  0  0  0  0  0  0
   -7.2833    0.4655   -0.7186 C   0  0  0  0  0  0  0  0  0  0  0  0
   -5.9483    0.0471   -0.7148 C   0  0  0  0  0  0  0  0  0  0  0  0
   -5.0667    0.5554    0.1858 C   0  0  0  0  0  0  0  0  0  0  0  0
   -3.7139    0.1403    0.2894 N   0  0  0  0  0  0  0  0  0  0  0  0
   -3.2404   -1.1222    0.0214 C   0  0  0  0  0  0  0  0  0  0  0  0
   -3.9709   -2.0470   -0.3672 O   0  0  0  0  0  0  0  0  0  0  0  0
   -1.8066   -1.3933    0.2101 N   0  0  0  0  0  0  0  0  0  0  0  0
   -1.0546   -0.2584    0.6358 C   0  0  0  0  0  0  0  0  0  0  0  0
    0.4558   -0.6089    0.6930 C   0  0  0  0  0  0  0  0  0  0  0  0
    0.7072   -1.3525   -0.5922 C   0  0  0  0  0  0  0  0  0  0  0  0
    0.1690   -2.7574   -0.3684 C   0  0  0  0  0  0  0  0  0  0  0  0
   -1.2956   -2.6891   -0.0358 C   0  0  0  0  0  0  0  0  0  0  0  0
    2.0241   -1.4284   -1.0921 N   0  0  0  0  0  0  0  0  0  0  0  0
    3.1377   -0.7242   -0.6816 C   0  0  0  0  0  0  0  0  0  0  0  0
    3.1372    0.1266    0.2875 O   0  0  0  0  0  0  0  0  0  0  0  0
    4.4093   -0.9160   -1.3512 N   0  0  0  0  0  0  0  0  0  0  0  0
    5.5036   -0.1988   -0.8858 C   0  0  0  0  0  0  0  0  0  0  0  0
    6.3199   -0.7020    0.1132 C   0  0  0  0  0  0  0  0  0  0  0  0
    7.3778    0.0299    0.5691 C   0  0  0  0  0  0  0  0  0  0  0  0
    7.6344    1.2650    0.0399 C   0  0  0  0  0  0  0  0  0  0  0  0
    6.8359    1.7942   -0.9611 C   0  0  0  0  0  0  0  0  0  0  0  0
    5.7853    1.0380   -1.4006 C   0  0  0  0  0  0  0  0  0  0  0  0
    8.7959    2.0240    0.5789 C   0  0  0  0  0  0  0  0  0  0  0  0
    8.7889    3.3029    0.0343 F   0  0  0  0  0  0  0  0  0  0  0  0
    8.6152    2.1084    1.9691 F   0  0  0  0  0  0  0  0  0  0  0  0
    9.9614    1.4005    0.2509 F   0  0  0  0  0  0  0  0  0  0  0  0
   -5.5315    1.5025    1.1013 C   0  0  0  0  0  0  0  0  0  0  0  0
   -6.8407    1.8962    1.0810 C   0  0  0  0  0  0  0  0  0  0  0  0
   -7.9745    0.0738   -1.4426 H   0  0  0  0  0  0  0  0  0  0  0  0
   -5.6435   -0.6622   -1.4692 H   0  0  0  0  0  0  0  0  0  0  0  0
   -3.0243    0.8866    0.5925 H   0  0  0  0  0  0  0  0  0  0  0  0
   -1.3488    0.1753    1.5937 H   0  0  0  0  0  0  0  0  0  0  0  0
   -1.0588    0.5118   -0.2175 H   0  0  0  0  0  0  0  0  0  0  0  0
    0.9754    0.3727    0.6963 H   0  0  0  0  0  0  0  0  0  0  0  0
    0.7067   -1.1548    1.5891 H   0  0  0  0  0  0  0  0  0  0  0  0
    0.0993   -0.7479   -1.3261 H   0  0  0  0  0  0  0  0  0  0  0  0
    0.4134   -3.3721   -1.2165 H   0  0  0  0  0  0  0  0  0  0  0  0
    0.7694   -3.1625    0.5161 H   0  0  0  0  0  0  0  0  0  0  0  0
   -1.4351   -3.3371    0.8861 H   0  0  0  0  0  0  0  0  0  0  0  0
   -1.8430   -3.2445   -0.8385 H   0  0  0  0  0  0  0  0  0  0  0  0
    2.1942   -2.1272   -1.9217 H   0  0  0  0  0  0  0  0  0  0  0  0
    4.4433   -1.5845   -2.1405 H   0  0  0  0  0  0  0  0  0  0  0  0
    6.0983   -1.6969    0.5384 H   0  0  0  0  0  0  0  0  0  0  0  0
    7.9868   -0.3951    1.3694 H   0  0  0  0  0  0  0  0  0  0  0  0
    7.0810    2.7578   -1.3613 H   0  0  0  0  0  0  0  0  0  0  0  0
    5.1965    1.4880   -2.1995 H   0  0  0  0  0  0  0  0  0  0  0  0
   -4.8052    1.8936    1.8036 H   0  0  0  0  0  0  0  0  0  0  0  0
   -7.1654    2.6281    1.8080 H   0  0  0  0  0  0  0  0  0  0  0  0
  1  2  1  0
  2  3  1  0
  2  4  1  0
  2  5  1  0
  5  6  2  0
  6  7  1  0
  7  8  2  0
  8  9  1  0
  9 10  1  0
 10 11  2  0
 10 12  1  0
 12 13  1  0
 13 14  1  0
 14 15  1  0
 15 16  1  0
 16 17  1  0
 15 18  1  0
 18 19  1  0
 19 20  2  0
 19 21  1  0
 21 22  1  0
 22 23  2  0
 23 24  1  0
 24 25  2  0
 25 26  1  0
 26 27  2  0
 25 28  1  0
 28 29  1  0
 28 30  1  0
 28 31  1  0
  8 32  1  0
 32 33  2  0
 33  5  1  0
 17 12  1  0
 27 22  1  0
  6 34  1  0
  7 35  1  0
  9 36  1  0
 13 37  1  0
 13 38  1  0
 14 39  1  0
 14 40  1  0
 15 41  1  0
 16 42  1  0
 16 43  1  0
 17 44  1  0
 17 45  1  0
 18 46  1  0
 21 47  1  0
 23 48  1  0
 24 49  1  0
 26 50  1  0
 27 51  1  0
 32 52  1  0
 33 53  1  0
M  END
$$$$
[H]OC(=O)[C@@]([H])(N([H])[H])C([H])([H])c1c([H])c([H])c(-c2nc(C(F)(F)F)sc2C(F)(F)F)c([H])c1[H]
     RDKit          3D

 35 36  0  0  0  0  0  0  0  0999 V2000
   -4.1143   -1.3929   -0.7879 N   0  0  0  0  0  0  0  0  0  0  0  0
   -3.9516   -0.2692    0.0637 C   0  0  1  0  0  0  0  0  0  0  0  0
   -2.8938    0.7118   -0.2709 C   0  0  0  0  0  0  0  0  0  0  0  0
   -1.4927    0.3221   -0.2902 C   0  0  0  0  0  0  0  0  0  0  0  0
   -0.7822    0.3603    0.9337 C   0  0  0  0  0  0  0  0  0  0  0  0
    0.5747    0.1707    0.9237 C   0  0  0  0  0  0  0  0  0  0  0  0
    1.2757   -0.0573   -0.2478 C   0  0  0  0  0  0  0  0  0  0  0  0
    0.5681   -0.0941   -1.4124 C   0  0  0  0  0  0  0  0  0  0  0  0
   -0.8113    0.0903   -1.4609 C   0  0  0  0  0  0  0  0  0  0  0  0
    2.7729   -0.0882   -0.1907 C   0  0  0  0  0  0  0  0  0  0  0  0
    3.3913    1.0297    0.1867 N   0  0  0  0  0  0  0  0  0  0  0  0
    4.6923    1.1103    0.2969 C   0  0  0  0  0  0  0  0  0  0  0  0
    5.1651   -0.4747   -0.1504 S   0  0  0  0  0  0  0  0  0  0  0  0
    3.6055   -1.1429   -0.4486 C   0  0  0  0  0  0  0  0  0  0  0  0
    3.2360   -2.5326   -0.8379 C   0  0  0  0  0  0  0  0  0  0  0  0
    2.5591   -2.5993   -2.0039 F   0  0  0  0  0  0  0  0  0  0  0  0
    4.3750   -3.3138   -0.8760 F   0  0  0  0  0  0  0  0  0  0  0  0
    2.3751   -2.9640    0.1894 F   0  0  0  0  0  0  0  0  0  0  0  0
    5.5315    2.3004    0.7071 C   0  0  0  0  0  0  0  0  0  0  0  0
    6.4243    1.9767    1.6635 F   0  0  0  0  0  0  0  0  0  0  0  0
    4.7082    3.2796    1.1586 F   0  0  0  0  0  0  0  0  0  0  0  0
    6.1721    2.7899   -0.4369 F   0  0  0  0  0  0  0  0  0  0  0  0
   -5.2572    0.4913    0.1484 C   0  0  0  0  0  0  0  0  0  0  0  0
   -6.3766    0.0982   -0.5644 O   0  0  0  0  0  0  0  0  0  0  0  0
   -5.2791    1.5004    0.8993 O   0  0  0  0  0  0  0  0  0  0  0  0
   -4.7904   -2.0583   -0.2939 H   0  0  0  0  0  0  0  0  0  0  0  0
   -4.6630   -1.0526   -1.6542 H   0  0  0  0  0  0  0  0  0  0  0  0
   -3.7871   -0.6411    1.1176 H   0  0  0  0  0  0  0  0  0  0  0  0
   -3.1457    1.2231   -1.2431 H   0  0  0  0  0  0  0  0  0  0  0  0
   -2.9769    1.5744    0.4807 H   0  0  0  0  0  0  0  0  0  0  0  0
   -1.2810    0.5136    1.8554 H   0  0  0  0  0  0  0  0  0  0  0  0
    1.1518    0.1855    1.8312 H   0  0  0  0  0  0  0  0  0  0  0  0
    1.0767   -0.2542   -2.3477 H   0  0  0  0  0  0  0  0  0  0  0  0
   -1.3728    0.0593   -2.4029 H   0  0  0  0  0  0  0  0  0  0  0  0
   -6.6794   -0.8524   -0.5756 H   0  0  0  0  0  0  0  0  0  0  0  0
  1  2  1  0
  2  3  1  0
  3  4  1  0
  4  5  2  0
  5  6  1  0
  6  7  2  0
  7  8  1  0
  8  9  2  0
  7 10  1  0
 10 11  1  0
 11 12  2  0
 12 13  1  0
 13 14  1  0
 14 15  1  0
 15 16  1  0
 15 17  1  0
 15 18  1  0
 12 19  1  0
 19 20  1  0
 19 21  1  0
 19 22  1  0
  2 23  1  0
 23 24  1  0
 23 25  2  0
  9  4  1  0
 14 10  2  0
  1 26  1  0
  1 27  1  0
  2 28  1  1
  3 29  1  0
  3 30  1  0
  5 31  1  0
  6 32  1  0
  8 33  1  0
  9 34  1  0
 24 35  1  0
M  END
$$$$
[H]c1c([H])c(C(F)(F)F)c([H])c([H])c1C(=O)N([H])c1c([H])c([H])c(S(=O)(=O)N([H])c2c([H])c([H])c(N3C([H])([H])C([H])([H])OC([H])([H])C3([H])[H])c([H])c2[H])c([H])c1[H]
     RDKit          3D

 57 60  0  0  0  0  0  0  0  0999 V2000
  -10.4963    3.4743    0.9580 F   0  0  0  0  0  0  0  0  0  0  0  0
  -10.3740    2.6564   -0.1718 C   0  0  0  0  0  0  0  0  0  0  0  0
  -10.6695    3.4512   -1.2616 F   0  0  0  0  0  0  0  0  0  0  0  0
  -11.3525    1.7083   -0.0894 F   0  0  0  0  0  0  0  0  0  0  0  0
   -9.0135    2.0738   -0.2561 C   0  0  0  0  0  0  0  0  0  0  0  0
   -8.4787    1.6954   -1.4808 C   0  0  0  0  0  0  0  0  0  0  0  0
   -7.2146    1.1604   -1.5703 C   0  0  0  0  0  0  0  0  0  0  0  0
   -6.4159    0.9727   -0.4457 C   0  0  0  0  0  0  0  0  0  0  0  0
   -6.9274    1.3366    0.7614 C   0  0  0  0  0  0  0  0  0  0  0  0
   -8.2166    1.8823    0.8485 C   0  0  0  0  0  0  0  0  0  0  0  0
   -5.0627    0.3904   -0.6085 C   0  0  0  0  0  0  0  0  0  0  0  0
   -4.5170    0.5046   -1.7623 O   0  0  0  0  0  0  0  0  0  0  0  0
   -4.4564   -0.2445    0.4757 N   0  0  0  0  0  0  0  0  0  0  0  0
   -3.1783   -0.8594    0.5294 C   0  0  0  0  0  0  0  0  0  0  0  0
   -2.8499   -1.6530    1.6435 C   0  0  0  0  0  0  0  0  0  0  0  0
   -1.6201   -2.2753    1.7222 C   0  0  0  0  0  0  0  0  0  0  0  0
   -0.6693   -2.1624    0.7477 C   0  0  0  0  0  0  0  0  0  0  0  0
   -0.9796   -1.3861   -0.3441 C   0  0  0  0  0  0  0  0  0  0  0  0
   -2.2273   -0.7471   -0.4375 C   0  0  0  0  0  0  0  0  0  0  0  0
    0.8773   -2.9955    0.8728 S   0  0  0  0  0  0  0  0  0  0  0  0
    0.6571   -4.5025    0.9835 O   0  0  0  0  0  0  0  0  0  0  0  0
    1.5516   -2.5423    2.1128 O   0  0  0  0  0  0  0  0  0  0  0  0
    1.8233   -2.6667   -0.5295 N   0  0  0  0  0  0  0  0  0  0  0  0
    3.0365   -1.9051   -0.3803 C   0  0  0  0  0  0  0  0  0  0  0  0
    3.0879   -0.7941    0.4249 C   0  0  0  0  0  0  0  0  0  0  0  0
    4.2668   -0.0664    0.5771 C   0  0  0  0  0  0  0  0  0  0  0  0
    5.4270   -0.4206   -0.0705 C   0  0  0  0  0  0  0  0  0  0  0  0
    5.3509   -1.5616   -0.8929 C   0  0  0  0  0  0  0  0  0  0  0  0
    4.1864   -2.2767   -1.0378 C   0  0  0  0  0  0  0  0  0  0  0  0
    6.6640    0.2774    0.0388 N   0  0  0  0  0  0  0  0  0  0  0  0
    6.9015    1.2039    1.0902 C   0  0  0  0  0  0  0  0  0  0  0  0
    7.9506    2.2407    0.7091 C   0  0  0  0  0  0  0  0  0  0  0  0
    9.0816    1.5731    0.2309 O   0  0  0  0  0  0  0  0  0  0  0  0
    8.8275    0.9460   -0.9631 C   0  0  0  0  0  0  0  0  0  0  0  0
    7.6685    0.0113   -0.9528 C   0  0  0  0  0  0  0  0  0  0  0  0
   -9.0846    1.8425   -2.3700 H   0  0  0  0  0  0  0  0  0  0  0  0
   -6.7765    0.8527   -2.5137 H   0  0  0  0  0  0  0  0  0  0  0  0
   -6.3337    1.2137    1.6696 H   0  0  0  0  0  0  0  0  0  0  0  0
   -8.6127    2.1717    1.7987 H   0  0  0  0  0  0  0  0  0  0  0  0
   -5.0618   -0.2665    1.3742 H   0  0  0  0  0  0  0  0  0  0  0  0
   -3.6135   -1.7410    2.3979 H   0  0  0  0  0  0  0  0  0  0  0  0
   -1.4102   -2.8850    2.6099 H   0  0  0  0  0  0  0  0  0  0  0  0
   -0.2440   -1.2670   -1.1273 H   0  0  0  0  0  0  0  0  0  0  0  0
   -2.4016   -0.1429   -1.3250 H   0  0  0  0  0  0  0  0  0  0  0  0
    1.4961   -3.0212   -1.4549 H   0  0  0  0  0  0  0  0  0  0  0  0
    2.2057   -0.4766    0.9430 H   0  0  0  0  0  0  0  0  0  0  0  0
    4.2730    0.8147    1.2218 H   0  0  0  0  0  0  0  0  0  0  0  0
    6.2628   -1.8496   -1.4062 H   0  0  0  0  0  0  0  0  0  0  0  0
    4.1565   -3.1533   -1.6702 H   0  0  0  0  0  0  0  0  0  0  0  0
    7.1929    0.7153    2.0493 H   0  0  0  0  0  0  0  0  0  0  0  0
    5.9824    1.7969    1.2714 H   0  0  0  0  0  0  0  0  0  0  0  0
    8.2481    2.7895    1.6264 H   0  0  0  0  0  0  0  0  0  0  0  0
    7.5078    2.9482    0.0040 H   0  0  0  0  0  0  0  0  0  0  0  0
    8.6323    1.7197   -1.7702 H   0  0  0  0  0  0  0  0  0  0  0  0
    9.7720    0.4362   -1.3051 H   0  0  0  0  0  0  0  0  0  0  0  0
    8.0578   -1.0440   -0.8110 H   0  0  0  0  0  0  0  0  0  0  0  0
    7.1122    0.0462   -1.9460 H   0  0  0  0  0  0  0  0  0  0  0  0
  1  2  1  0
  2  3  1  0
  2  4  1  0
  2  5  1  0
  5  6  2  0
  6  7  1  0
  7  8  2  0
  8  9  1  0
  9 10  2  0
  8 11  1  0
 11 12  2  0
 11 13  1  0
 13 14  1  0
 14 15  2  0
 15 16  1  0
 16 17  2  0
 17 18  1  0
 18 19  2  0
 17 20  1  0
 20 21  2  0
 20 22  2  0
 20 23  1  0
 23 24  1  0
 24 25  2  0
 25 26  1  0
 26 27  2  0
 27 28  1  0
 28 29  2  0
 27 30  1  0
 30 31  1  0
 31 32  1  0
 32 33  1  0
 33 34  1  0
 34 35  1  0
 10  5  1  0
 19 14  1  0
 29 24  1  0
 35 30  1  0
  6 36  1  0
  7 37  1  0
  9 38  1  0
 10 39  1  0
 13 40  1  0
 15 41  1  0
 16 42  1  0
 18 43  1  0
 19 44  1  0
 23 45  1  0
 25 46  1  0
 26 47  1  0
 28 48  1  0
 29 49  1  0
 31 50  1  0
 31 51  1  0
 32 52  1  0
 32 53  1  0
 34 54  1  0
 34 55  1  0
 35 56  1  0
 35 57  1  0
M  END
$$$$
[H]OC([H])([H])[C@@]1([H])O[C@@]([H])(n2c([H])nc3c2=NC=3N([H])c2c([H])c([H])c(S(=O)(=O)N([H])[H])c([H])c2[H])[C@]([H])(O[H])[C@]1([H])O[H]
     RDKit          3D

 44 47  0  0  0  0  0  0  0  0999 V2000
   -6.5534   -1.8461   -0.0318 O   0  0  0  0  0  0  0  0  0  0  0  0
   -6.4228   -0.4973   -0.3197 C   0  0  0  0  0  0  0  0  0  0  0  0
   -5.2432    0.0398    0.4963 C   0  0  1  0  0  0  0  0  0  0  0  0
   -4.0768   -0.6094    0.1792 O   0  0  0  0  0  0  0  0  0  0  0  0
   -3.0396    0.3167    0.2845 C   0  0  2  0  0  0  0  0  0  0  0  0
   -3.6639    1.5177   -0.4147 C   0  0  2  0  0  0  0  0  0  0  0  0
   -2.9699    2.6877   -0.1315 O   0  0  0  0  0  0  0  0  0  0  0  0
   -5.0412    1.5135    0.2270 C   0  0  2  0  0  0  0  0  0  0  0  0
   -5.0309    2.1632    1.4632 O   0  0  0  0  0  0  0  0  0  0  0  0
   -1.8588   -0.1070   -0.4114 N   0  0  0  0  0  0  0  0  0  0  0  0
   -1.4975    0.0595   -1.6940 C   0  0  0  0  0  0  0  0  0  0  0  0
   -0.2991   -0.5036   -1.9202 N   0  0  0  0  0  0  0  0  0  0  0  0
    0.1158   -1.0394   -0.7671 C   0  0  0  0  0  0  0  0  0  0  0  0
    0.8368   -1.6653    0.1338 C   0  0  0  0  0  0  0  0  0  0  0  0
    2.0889   -2.3266    0.1612 N   0  0  0  0  0  0  0  0  0  0  0  0
    3.2988   -1.5854    0.1308 C   0  0  0  0  0  0  0  0  0  0  0  0
    4.5215   -2.2319    0.1576 C   0  0  0  0  0  0  0  0  0  0  0  0
    5.6802   -1.4930    0.1273 C   0  0  0  0  0  0  0  0  0  0  0  0
    5.6490   -0.1174    0.0705 C   0  0  0  0  0  0  0  0  0  0  0  0
    4.4235    0.5135    0.0443 C   0  0  0  0  0  0  0  0  0  0  0  0
    3.2283   -0.2115    0.0741 C   0  0  0  0  0  0  0  0  0  0  0  0
    7.1081    0.8340    0.0314 S   0  0  0  0  0  0  0  0  0  0  0  0
    7.5754    1.2063    1.6483 N   0  0  0  0  0  0  0  0  0  0  0  0
    8.1947    0.1351   -0.7035 O   0  0  0  0  0  0  0  0  0  0  0  0
    6.7780    2.1369   -0.6726 O   0  0  0  0  0  0  0  0  0  0  0  0
   -0.1625   -1.4091    1.0923 N   0  0  0  0  0  0  0  0  0  0  0  0
   -0.8560   -0.7912    0.1687 C   0  0  0  0  0  0  0  0  0  0  0  0
   -5.6781   -2.3003    0.0568 H   0  0  0  0  0  0  0  0  0  0  0  0
   -6.1525   -0.4144   -1.3969 H   0  0  0  0  0  0  0  0  0  0  0  0
   -7.3211    0.0647   -0.0507 H   0  0  0  0  0  0  0  0  0  0  0  0
   -5.4846   -0.1758    1.5567 H   0  0  0  0  0  0  0  0  0  0  0  0
   -2.8709    0.5314    1.3493 H   0  0  0  0  0  0  0  0  0  0  0  0
   -3.7466    1.3251   -1.4828 H   0  0  0  0  0  0  0  0  0  0  0  0
   -3.5325    3.4341   -0.4596 H   0  0  0  0  0  0  0  0  0  0  0  0
   -5.8170    1.9449   -0.4261 H   0  0  0  0  0  0  0  0  0  0  0  0
   -5.2918    1.5482    2.2106 H   0  0  0  0  0  0  0  0  0  0  0  0
   -2.0856    0.5728   -2.4389 H   0  0  0  0  0  0  0  0  0  0  0  0
    2.1402   -3.3877    0.2049 H   0  0  0  0  0  0  0  0  0  0  0  0
    4.5055   -3.3105    0.2021 H   0  0  0  0  0  0  0  0  0  0  0  0
    6.6364   -2.0047    0.1486 H   0  0  0  0  0  0  0  0  0  0  0  0
    4.3483    1.5960   -0.0004 H   0  0  0  0  0  0  0  0  0  0  0  0
    2.2802    0.3111    0.0524 H   0  0  0  0  0  0  0  0  0  0  0  0
    6.8426    1.7885    2.0968 H   0  0  0  0  0  0  0  0  0  0  0  0
    8.4441    1.7868    1.5898 H   0  0  0  0  0  0  0  0  0  0  0  0
  1  2  1  0
  2  3  1  0
  3  4  1  0
  4  5  1  0
  5  6  1  0
  6  7  1  0
  6  8  1  0
  8  9  1  0
  5 10  1  0
 10 11  1  0
 11 12  2  0
 12 13  1  0
 13 14  2  0
 14 15  1  0
 15 16  1  0
 16 17  2  0
 17 18  1  0
 18 19  2  0
 19 20  1  0
 20 21  2  0
 19 22  1  0
 22 23  1  0
 22 24  2  0
 22 25  2  0
 14 26  1  0
 26 27  2  0
  8  3  1  0
 27 10  1  0
 27 13  1  0
 21 16  1  0
  1 28  1  0
  2 29  1  0
  2 30  1  0
  3 31  1  1
  5 32  1  1
  6 33  1  6
  7 34  1  0
  8 35  1  6
  9 36  1  0
 11 37  1  0
 15 38  1  0
 17 39  1  0
 18 40  1  0
 20 41  1  0
 21 42  1  0
 23 43  1  0
 23 44  1  0
M  END
$$$$
[H]c1c([H])c(S(=O)(=O)N2C([H])([H])C([H])([H])C([H])(c3c([H])n([H])c4c([H])c([H])c(F)c([H])c34)C([H])([H])C2([H])[H])c([H])c([H])c1C(F)(F)F
     RDKit          3D

 47 50  0  0  0  0  0  0  0  0999 V2000
   -7.7774   -1.6577    1.6150 F   0  0  0  0  0  0  0  0  0  0  0  0
   -7.7019   -0.7813    0.5741 C   0  0  0  0  0  0  0  0  0  0  0  0
   -8.2142   -1.3112   -0.5898 F   0  0  0  0  0  0  0  0  0  0  0  0
   -8.4988    0.3099    0.8710 F   0  0  0  0  0  0  0  0  0  0  0  0
   -6.2860   -0.3501    0.3592 C   0  0  0  0  0  0  0  0  0  0  0  0
   -5.5576    0.2867    1.3268 C   0  0  0  0  0  0  0  0  0  0  0  0
   -4.2410    0.7044    1.0814 C   0  0  0  0  0  0  0  0  0  0  0  0
   -3.6120    0.5088   -0.1109 C   0  0  0  0  0  0  0  0  0  0  0  0
   -4.3929   -0.1553   -1.0851 C   0  0  0  0  0  0  0  0  0  0  0  0
   -5.6779   -0.5726   -0.8702 C   0  0  0  0  0  0  0  0  0  0  0  0
   -2.0639    1.0801   -0.5471 S   0  0  0  0  0  0  0  0  0  0  0  0
   -2.0301    1.2524   -2.1023 O   0  0  0  0  0  0  0  0  0  0  0  0
   -1.8501    2.5230   -0.0550 O   0  0  0  0  0  0  0  0  0  0  0  0
   -0.6803    0.2320   -0.1243 N   0  0  0  0  0  0  0  0  0  0  0  0
   -0.3421    0.0456    1.1845 C   0  0  0  0  0  0  0  0  0  0  0  0
    1.1063    0.1709    1.6410 C   0  0  0  0  0  0  0  0  0  0  0  0
    2.0506    0.6329    0.6123 C   0  0  0  0  0  0  0  0  0  0  0  0
    1.5684    1.0190   -0.7341 C   0  0  0  0  0  0  0  0  0  0  0  0
    0.3162    0.3229   -1.1671 C   0  0  0  0  0  0  0  0  0  0  0  0
    3.4983    0.3623    0.7334 C   0  0  0  0  0  0  0  0  0  0  0  0
    4.4949    0.9103    1.5102 C   0  0  0  0  0  0  0  0  0  0  0  0
    5.7138    0.5631    1.0431 N   0  0  0  0  0  0  0  0  0  0  0  0
    5.5717   -0.2339   -0.0557 C   0  0  0  0  0  0  0  0  0  0  0  0
    6.4730   -0.9112   -0.8499 C   0  0  0  0  0  0  0  0  0  0  0  0
    6.0500   -1.7394   -1.8575 C   0  0  0  0  0  0  0  0  0  0  0  0
    4.7000   -1.8727   -2.0384 C   0  0  0  0  0  0  0  0  0  0  0  0
    4.2543   -2.7322   -3.0169 F   0  0  0  0  0  0  0  0  0  0  0  0
    3.8098   -1.1897   -1.2423 C   0  0  0  0  0  0  0  0  0  0  0  0
    4.2335   -0.3498   -0.2350 C   0  0  0  0  0  0  0  0  0  0  0  0
   -6.0116    0.4605    2.2894 H   0  0  0  0  0  0  0  0  0  0  0  0
   -3.6973    1.2126    1.8832 H   0  0  0  0  0  0  0  0  0  0  0  0
   -3.9207   -0.3420   -2.0735 H   0  0  0  0  0  0  0  0  0  0  0  0
   -6.2606   -1.0794   -1.6117 H   0  0  0  0  0  0  0  0  0  0  0  0
   -0.6869   -0.9840    1.5000 H   0  0  0  0  0  0  0  0  0  0  0  0
   -0.9779    0.7191    1.8414 H   0  0  0  0  0  0  0  0  0  0  0  0
    1.0915    0.7584    2.5750 H   0  0  0  0  0  0  0  0  0  0  0  0
    1.3938   -0.8735    2.0452 H   0  0  0  0  0  0  0  0  0  0  0  0
    2.1322    1.8188    1.0489 H   0  0  0  0  0  0  0  0  0  0  0  0
    1.3281    2.1401   -0.8089 H   0  0  0  0  0  0  0  0  0  0  0  0
    2.3529    0.9032   -1.4797 H   0  0  0  0  0  0  0  0  0  0  0  0
   -0.1025    0.9149   -1.9959 H   0  0  0  0  0  0  0  0  0  0  0  0
    0.4810   -0.6858   -1.5694 H   0  0  0  0  0  0  0  0  0  0  0  0
    4.2953    1.5551    2.3720 H   0  0  0  0  0  0  0  0  0  0  0  0
    6.6321    0.8339    1.4394 H   0  0  0  0  0  0  0  0  0  0  0  0
    7.5139   -0.7836   -0.6835 H   0  0  0  0  0  0  0  0  0  0  0  0
    6.7382   -2.2857   -2.4872 H   0  0  0  0  0  0  0  0  0  0  0  0
    2.7839   -1.3498   -1.4297 H   0  0  0  0  0  0  0  0  0  0  0  0
  1  2  1  0
  2  3  1  0
  2  4  1  0
  2  5  1  0
  5  6  2  0
  6  7  1  0
  7  8  2  0
  8  9  1  0
  9 10  2  0
  8 11  1  0
 11 12  2  0
 11 13  2  0
 11 14  1  0
 14 15  1  0
 15 16  1  0
 16 17  1  0
 17 18  1  0
 18 19  1  0
 17 20  1  0
 20 21  2  0
 21 22  1  0
 22 23  1  0
 23 24  2  0
 24 25  1  0
 25 26  2  0
 26 27  1  0
 26 28  1  0
 28 29  2  0
 10  5  1  0
 19 14  1  0
 29 20  1  0
 29 23  1  0
  6 30  1  0
  7 31  1  0
  9 32  1  0
 10 33  1  0
 15 34  1  0
 15 35  1  0
 16 36  1  0
 16 37  1  0
 17 38  1  0
 18 39  1  0
 18 40  1  0
 19 41  1  0
 19 42  1  0
 21 43  1  0
 22 44  1  0
 24 45  1  0
 25 46  1  0
 28 47  1  0
M  END
$$$$
[H]c1nc(N([H])c2c([H])c([H])c(N3C([H])([H])C([H])([H])N(C([H])([H])[H])C([H])([H])C3([H])[H])c([H])c2[H])nc(N([H])c2c([H])c([H])c(N3C([H])([H])C([H])([H])OC([H])([H])C3([H])[H])c([H])c2[H])c1C(=O)N([H])[H]
     RDKit          3D

 68 72  0  0  0  0  0  0  0  0999 V2000
    8.9189    2.3527   -0.8978 C   0  0  0  0  0  0  0  0  0  0  0  0
    8.7864    1.0444   -1.5269 N   0  0  0  0  0  0  0  0  0  0  0  0
    8.5854   -0.0036   -0.5485 C   0  0  0  0  0  0  0  0  0  0  0  0
    7.2425    0.0842    0.1107 C   0  0  0  0  0  0  0  0  0  0  0  0
    6.2164    0.0617   -0.9378 N   0  0  0  0  0  0  0  0  0  0  0  0
    6.6388    0.1599   -2.3031 C   0  0  0  0  0  0  0  0  0  0  0  0
    7.7858    1.1015   -2.5416 C   0  0  0  0  0  0  0  0  0  0  0  0
    4.8407   -0.0436   -0.6060 C   0  0  0  0  0  0  0  0  0  0  0  0
    3.9061   -0.3047   -1.5547 C   0  0  0  0  0  0  0  0  0  0  0  0
    2.5745   -0.3779   -1.1717 C   0  0  0  0  0  0  0  0  0  0  0  0
    2.1375   -0.2011    0.1201 C   0  0  0  0  0  0  0  0  0  0  0  0
    0.7673   -0.2710    0.3793 N   0  0  0  0  0  0  0  0  0  0  0  0
    0.1280   -0.4238    1.6396 C   0  0  0  0  0  0  0  0  0  0  0  0
    0.7502   -0.5442    2.8156 N   0  0  0  0  0  0  0  0  0  0  0  0
    0.1502   -0.6771    3.9951 C   0  0  0  0  0  0  0  0  0  0  0  0
   -1.2713   -0.6942    4.0224 C   0  0  0  0  0  0  0  0  0  0  0  0
   -1.8726   -0.8059    5.3157 C   0  0  0  0  0  0  0  0  0  0  0  0
   -1.0634   -0.9483    6.5009 N   0  0  0  0  0  0  0  0  0  0  0  0
   -3.0818   -0.7933    5.5398 O   0  0  0  0  0  0  0  0  0  0  0  0
   -1.9400   -0.5757    2.8489 C   0  0  0  0  0  0  0  0  0  0  0  0
   -3.3517   -0.6389    2.7902 N   0  0  0  0  0  0  0  0  0  0  0  0
   -4.1473   -0.4672    1.6256 C   0  0  0  0  0  0  0  0  0  0  0  0
   -3.8070    0.2071    0.5070 C   0  0  0  0  0  0  0  0  0  0  0  0
   -4.6606    0.2993   -0.6021 C   0  0  0  0  0  0  0  0  0  0  0  0
   -5.8934   -0.2986   -0.5955 C   0  0  0  0  0  0  0  0  0  0  0  0
   -6.2562   -0.9982    0.5576 C   0  0  0  0  0  0  0  0  0  0  0  0
   -5.4049   -1.0772    1.6322 C   0  0  0  0  0  0  0  0  0  0  0  0
   -6.8114   -0.2420   -1.6863 N   0  0  0  0  0  0  0  0  0  0  0  0
   -8.1062   -0.9368   -1.5506 C   0  0  0  0  0  0  0  0  0  0  0  0
   -8.9298   -0.5869   -2.7585 C   0  0  0  0  0  0  0  0  0  0  0  0
   -9.0064    0.7778   -2.9781 O   0  0  0  0  0  0  0  0  0  0  0  0
   -7.7870    1.3861   -3.1201 C   0  0  0  0  0  0  0  0  0  0  0  0
   -6.6053    0.4358   -2.9270 C   0  0  0  0  0  0  0  0  0  0  0  0
   -1.2189   -0.4440    1.6950 N   0  0  0  0  0  0  0  0  0  0  0  0
    3.0904    0.0594    1.0565 C   0  0  0  0  0  0  0  0  0  0  0  0
    4.4458    0.1422    0.7173 C   0  0  0  0  0  0  0  0  0  0  0  0
    8.6373    2.2485    0.1580 H   0  0  0  0  0  0  0  0  0  0  0  0
    8.2028    3.0648   -1.3692 H   0  0  0  0  0  0  0  0  0  0  0  0
    9.9398    2.7225   -1.0665 H   0  0  0  0  0  0  0  0  0  0  0  0
    8.6695   -0.9712   -1.0785 H   0  0  0  0  0  0  0  0  0  0  0  0
    9.4236    0.0541    0.1732 H   0  0  0  0  0  0  0  0  0  0  0  0
    7.1460   -0.8226    0.7592 H   0  0  0  0  0  0  0  0  0  0  0  0
    7.1582    0.9593    0.7590 H   0  0  0  0  0  0  0  0  0  0  0  0
    5.8018    0.4942   -2.9602 H   0  0  0  0  0  0  0  0  0  0  0  0
    6.9320   -0.8644   -2.6309 H   0  0  0  0  0  0  0  0  0  0  0  0
    8.1985    0.8420   -3.5498 H   0  0  0  0  0  0  0  0  0  0  0  0
    7.3932    2.1378   -2.6424 H   0  0  0  0  0  0  0  0  0  0  0  0
    4.1495   -0.4652   -2.5906 H   0  0  0  0  0  0  0  0  0  0  0  0
    1.8301   -0.5856   -1.9294 H   0  0  0  0  0  0  0  0  0  0  0  0
    0.0702   -0.2028   -0.4385 H   0  0  0  0  0  0  0  0  0  0  0  0
    0.6942   -0.7702    4.9265 H   0  0  0  0  0  0  0  0  0  0  0  0
   -0.6783   -0.1110    6.9381 H   0  0  0  0  0  0  0  0  0  0  0  0
   -0.9017   -1.8878    6.8653 H   0  0  0  0  0  0  0  0  0  0  0  0
   -3.8676   -0.8425    3.6932 H   0  0  0  0  0  0  0  0  0  0  0  0
   -2.8663    0.7197    0.4378 H   0  0  0  0  0  0  0  0  0  0  0  0
   -4.3336    0.8518   -1.4772 H   0  0  0  0  0  0  0  0  0  0  0  0
   -7.2252   -1.4766    0.5836 H   0  0  0  0  0  0  0  0  0  0  0  0
   -5.6983   -1.6278    2.5257 H   0  0  0  0  0  0  0  0  0  0  0  0
   -8.6154   -0.6064   -0.6298 H   0  0  0  0  0  0  0  0  0  0  0  0
   -7.8880   -2.0199   -1.5866 H   0  0  0  0  0  0  0  0  0  0  0  0
   -8.4533   -1.0375   -3.6689 H   0  0  0  0  0  0  0  0  0  0  0  0
   -9.9379   -1.0178   -2.6894 H   0  0  0  0  0  0  0  0  0  0  0  0
   -7.7272    1.8319   -4.1329 H   0  0  0  0  0  0  0  0  0  0  0  0
   -7.6441    2.2307   -2.4102 H   0  0  0  0  0  0  0  0  0  0  0  0
   -5.7230    1.0907   -2.8566 H   0  0  0  0  0  0  0  0  0  0  0  0
   -6.5587   -0.2713   -3.7850 H   0  0  0  0  0  0  0  0  0  0  0  0
    2.8964    0.2288    2.0963 H   0  0  0  0  0  0  0  0  0  0  0  0
    5.2259    0.3460    1.4288 H   0  0  0  0  0  0  0  0  0  0  0  0
  1  2  1  0
  2  3  1  0
  3  4  1  0
  4  5  1  0
  5  6  1  0
  6  7  1  0
  5  8  1  0
  8  9  2  0
  9 10  1  0
 10 11  2  0
 11 12  1  0
 12 13  1  0
 13 14  2  0
 14 15  1  0
 15 16  2  0
 16 17  1  0
 17 18  1  0
 17 19  2  0
 16 20  1  0
 20 21  1  0
 21 22  1  0
 22 23  2  0
 23 24  1  0
 24 25  2  0
 25 26  1  0
 26 27  2  0
 25 28  1  0
 28 29  1  0
 29 30  1  0
 30 31  1  0
 31 32  1  0
 32 33  1  0
 20 34  2  0
 11 35  1  0
 35 36  2  0
  7  2  1  0
 36  8  1  0
 34 13  1  0
 27 22  1  0
 33 28  1  0
  1 37  1  0
  1 38  1  0
  1 39  1  0
  3 40  1  0
  3 41  1  0
  4 42  1  0
  4 43  1  0
  6 44  1  0
  6 45  1  0
  7 46  1  0
  7 47  1  0
  9 48  1  0
 10 49  1  0
 12 50  1  0
 15 51  1  0
 18 52  1  0
 18 53  1  0
 21 54  1  0
 23 55  1  0
 24 56  1  0
 26 57  1  0
 27 58  1  0
 29 59  1  0
 29 60  1  0
 30 61  1  0
 30 62  1  0
 32 63  1  0
 32 64  1  0
 33 65  1  0
 33 66  1  0
 35 67  1  0
 36 68  1  0
M  END
$$$$
[H]OC([H])([H])[C@@]1([H])O[C@@]([H])(n2c([H])nc3c(N([H])[C@]4([H])C([H])([H])C([H])([H])C([H])([H])C([H])([H])[C@]4([H])O[H])nc([H])nc32)[C@]([H])(O[H])[C@@]([H])(O[H])[C@]1([H])O[H]
     RDKit          3D

 53 56  0  0  0  0  0  0  0  0999 V2000
    5.7059    2.4986    1.4084 O   0  0  0  0  0  0  0  0  0  0  0  0
    5.9878    1.7419    0.2655 C   0  0  0  0  0  0  0  0  0  0  0  0
    5.2434    0.4175    0.2704 C   0  0  1  0  0  0  0  0  0  0  0  0
    3.8872    0.7223    0.3112 O   0  0  0  0  0  0  0  0  0  0  0  0
    3.0844   -0.4003    0.1600 C   0  0  2  0  0  0  0  0  0  0  0  0
    3.3337   -1.1416   -1.1121 C   0  0  2  0  0  0  0  0  0  0  0  0
    3.6835   -2.4687   -0.8057 O   0  0  0  0  0  0  0  0  0  0  0  0
    4.4704   -0.5651   -1.9066 C   0  0  1  0  0  0  0  0  0  0  0  0
    4.1183    0.5494   -2.6478 O   0  0  0  0  0  0  0  0  0  0  0  0
    5.6259   -0.3188   -0.9851 C   0  0  2  0  0  0  0  0  0  0  0  0
    6.1733   -1.5428   -0.5996 O   0  0  0  0  0  0  0  0  0  0  0  0
    1.7054    0.0537    0.2625 N   0  0  0  0  0  0  0  0  0  0  0  0
    1.2371    1.3229    0.2853 C   0  0  0  0  0  0  0  0  0  0  0  0
   -0.1123    1.3195    0.3906 N   0  0  0  0  0  0  0  0  0  0  0  0
   -0.5219    0.0476    0.4363 C   0  0  0  0  0  0  0  0  0  0  0  0
   -1.8119   -0.4529    0.5423 C   0  0  0  0  0  0  0  0  0  0  0  0
   -2.9449    0.3924    0.6223 N   0  0  0  0  0  0  0  0  0  0  0  0
   -4.2664   -0.1355    0.7302 C   0  0  2  0  0  0  0  0  0  0  0  0
   -4.5645   -0.9811   -0.4741 C   0  0  0  0  0  0  0  0  0  0  0  0
   -6.0526   -0.8743   -0.7660 C   0  0  0  0  0  0  0  0  0  0  0  0
   -6.4666    0.4915   -1.2100 C   0  0  0  0  0  0  0  0  0  0  0  0
   -5.5931    1.5320   -0.5360 C   0  0  0  0  0  0  0  0  0  0  0  0
   -5.2885    0.9885    0.8599 C   0  0  2  0  0  0  0  0  0  0  0  0
   -4.8476    1.9848    1.7052 O   0  0  0  0  0  0  0  0  0  0  0  0
   -1.9070   -1.8002    0.5642 N   0  0  0  0  0  0  0  0  0  0  0  0
   -0.8339   -2.6048    0.4892 C   0  0  0  0  0  0  0  0  0  0  0  0
    0.4154   -2.0744    0.3861 N   0  0  0  0  0  0  0  0  0  0  0  0
    0.6006   -0.7389    0.3572 C   0  0  0  0  0  0  0  0  0  0  0  0
    4.9325    3.1209    1.2376 H   0  0  0  0  0  0  0  0  0  0  0  0
    7.0750    1.5972    0.1079 H   0  0  0  0  0  0  0  0  0  0  0  0
    5.5978    2.3166   -0.6060 H   0  0  0  0  0  0  0  0  0  0  0  0
    5.5560   -0.1277    1.1936 H   0  0  0  0  0  0  0  0  0  0  0  0
    3.2398   -1.0721    1.0501 H   0  0  0  0  0  0  0  0  0  0  0  0
    2.4249   -1.2181   -1.7575 H   0  0  0  0  0  0  0  0  0  0  0  0
    2.9652   -3.1045   -0.9884 H   0  0  0  0  0  0  0  0  0  0  0  0
    4.7938   -1.3457   -2.6428 H   0  0  0  0  0  0  0  0  0  0  0  0
    3.1663    0.7681   -2.6114 H   0  0  0  0  0  0  0  0  0  0  0  0
    6.4198    0.2069   -1.5595 H   0  0  0  0  0  0  0  0  0  0  0  0
    6.5516   -1.4647    0.3075 H   0  0  0  0  0  0  0  0  0  0  0  0
    1.8778    2.1949    0.2259 H   0  0  0  0  0  0  0  0  0  0  0  0
   -2.8001    1.4197    0.6010 H   0  0  0  0  0  0  0  0  0  0  0  0
   -4.2903   -0.7805    1.6465 H   0  0  0  0  0  0  0  0  0  0  0  0
   -3.9688   -0.6458   -1.3547 H   0  0  0  0  0  0  0  0  0  0  0  0
   -4.3598   -2.0393   -0.2131 H   0  0  0  0  0  0  0  0  0  0  0  0
   -6.3233   -1.6619   -1.5144 H   0  0  0  0  0  0  0  0  0  0  0  0
   -6.5682   -1.1905    0.1787 H   0  0  0  0  0  0  0  0  0  0  0  0
   -7.5180    0.7342   -0.9235 H   0  0  0  0  0  0  0  0  0  0  0  0
   -6.3759    0.6008   -2.2994 H   0  0  0  0  0  0  0  0  0  0  0  0
   -6.1273    2.4868   -0.3893 H   0  0  0  0  0  0  0  0  0  0  0  0
   -4.6474    1.6831   -1.1018 H   0  0  0  0  0  0  0  0  0  0  0  0
   -6.2337    0.5326    1.2147 H   0  0  0  0  0  0  0  0  0  0  0  0
   -4.4755    2.7143    1.1528 H   0  0  0  0  0  0  0  0  0  0  0  0
   -0.9733   -3.6883    0.5118 H   0  0  0  0  0  0  0  0  0  0  0  0
  1  2  1  0
  2  3  1  0
  3  4  1  0
  4  5  1  0
  5  6  1  0
  6  7  1  0
  6  8  1  0
  8  9  1  0
  8 10  1  0
 10 11  1  0
  5 12  1  0
 12 13  1  0
 13 14  2  0
 14 15  1  0
 15 16  2  0
 16 17  1  0
 17 18  1  0
 18 19  1  0
 19 20  1  0
 20 21  1  0
 21 22  1  0
 22 23  1  0
 23 24  1  0
 16 25  1  0
 25 26  2  0
 26 27  1  0
 27 28  2  0
 10  3  1  0
 28 12  1  0
 28 15  1  0
 23 18  1  0
  1 29  1  0
  2 30  1  0
  2 31  1  0
  3 32  1  1
  5 33  1  1
  6 34  1  6
  7 35  1  0
  8 36  1  6
  9 37  1  0
 10 38  1  6
 11 39  1  0
 13 40  1  0
 17 41  1  0
 18 42  1  1
 19 43  1  0
 19 44  1  0
 20 45  1  0
 20 46  1  0
 21 47  1  0
 21 48  1  0
 22 49  1  0
 22 50  1  0
 23 51  1  1
 24 52  1  0
 26 53  1  0
M  END
$$$$
[H]c1nn(C([H])([H])[H])c([H])c1-c1c([H])c([H])c2c(c1[H])c([H])c(C(=O)N([H])c1c([H])c([H])c([H])c(C#N)c1[H])n2[H]
     RDKit          3D

 41 44  0  0  0  0  0  0  0  0999 V2000
   -7.5452    2.6324   -1.3341 C   0  0  0  0  0  0  0  0  0  0  0  0
   -6.7016    1.5525   -0.8109 N   0  0  0  0  0  0  0  0  0  0  0  0
   -5.3653    1.4499   -0.9149 C   0  0  0  0  0  0  0  0  0  0  0  0
   -4.9122    0.3006   -0.3038 C   0  0  0  0  0  0  0  0  0  0  0  0
   -6.0587   -0.3061    0.1884 C   0  0  0  0  0  0  0  0  0  0  0  0
   -7.0984    0.4844   -0.1429 N   0  0  0  0  0  0  0  0  0  0  0  0
   -3.5241   -0.1956   -0.1855 C   0  0  0  0  0  0  0  0  0  0  0  0
   -3.2276   -1.5203   -0.1439 C   0  0  0  0  0  0  0  0  0  0  0  0
   -1.9145   -1.9101   -0.0319 C   0  0  0  0  0  0  0  0  0  0  0  0
   -0.9118   -0.9687    0.0374 C   0  0  0  0  0  0  0  0  0  0  0  0
    0.4440   -1.0918    0.1497 N   0  0  0  0  0  0  0  0  0  0  0  0
    1.0125    0.1132    0.1805 C   0  0  0  0  0  0  0  0  0  0  0  0
    0.0101    1.0225    0.0867 C   0  0  0  0  0  0  0  0  0  0  0  0
   -1.2186    0.3694   -0.0052 C   0  0  0  0  0  0  0  0  0  0  0  0
   -2.5279    0.7477   -0.1168 C   0  0  0  0  0  0  0  0  0  0  0  0
    2.4498    0.4450    0.2941 C   0  0  0  0  0  0  0  0  0  0  0  0
    2.7342    1.6609    0.3003 O   0  0  0  0  0  0  0  0  0  0  0  0
    3.4236   -0.5598    0.3886 N   0  0  0  0  0  0  0  0  0  0  0  0
    4.8109   -0.4555    0.5042 C   0  0  0  0  0  0  0  0  0  0  0  0
    5.4922    0.7123    0.6845 C   0  0  0  0  0  0  0  0  0  0  0  0
    6.8822    0.7105    0.7786 C   0  0  0  0  0  0  0  0  0  0  0  0
    7.5997   -0.4490    0.6942 C   0  0  0  0  0  0  0  0  0  0  0  0
    6.9226   -1.6114    0.5150 C   0  0  0  0  0  0  0  0  0  0  0  0
    5.5672   -1.6232    0.4217 C   0  0  0  0  0  0  0  0  0  0  0  0
    7.6549   -2.8476    0.4227 C   0  0  0  0  0  0  0  0  0  0  0  0
    8.2311   -3.8337    0.3376 N   0  0  0  0  0  0  0  0  0  0  0  0
   -7.1528    2.8792   -2.3341 H   0  0  0  0  0  0  0  0  0  0  0  0
   -8.5935    2.3335   -1.3049 H   0  0  0  0  0  0  0  0  0  0  0  0
   -7.4253    3.5534   -0.7132 H   0  0  0  0  0  0  0  0  0  0  0  0
   -4.7347    2.1725   -1.4114 H   0  0  0  0  0  0  0  0  0  0  0  0
   -6.0726   -1.2371    0.7302 H   0  0  0  0  0  0  0  0  0  0  0  0
   -3.9927   -2.2625   -0.1963 H   0  0  0  0  0  0  0  0  0  0  0  0
   -1.6344   -2.9516    0.0043 H   0  0  0  0  0  0  0  0  0  0  0  0
    0.9741   -1.9783    0.2045 H   0  0  0  0  0  0  0  0  0  0  0  0
    0.0859    2.0946    0.0789 H   0  0  0  0  0  0  0  0  0  0  0  0
   -2.7448    1.8227   -0.1488 H   0  0  0  0  0  0  0  0  0  0  0  0
    3.0027   -1.5549    0.3695 H   0  0  0  0  0  0  0  0  0  0  0  0
    4.9742    1.6483    0.7618 H   0  0  0  0  0  0  0  0  0  0  0  0
    7.3840    1.6568    0.9208 H   0  0  0  0  0  0  0  0  0  0  0  0
    8.6614   -0.4368    0.7677 H   0  0  0  0  0  0  0  0  0  0  0  0
    5.0396   -2.5682    0.2767 H   0  0  0  0  0  0  0  0  0  0  0  0
  1  2  1  0
  2  3  1  0
  3  4  2  0
  4  5  1  0
  5  6  2  0
  4  7  1  0
  7  8  2  0
  8  9  1  0
  9 10  2  0
 10 11  1  0
 11 12  1  0
 12 13  2  0
 13 14  1  0
 14 15  2  0
 12 16  1  0
 16 17  2  0
 16 18  1  0
 18 19  1  0
 19 20  2  0
 20 21  1  0
 21 22  2  0
 22 23  1  0
 23 24  2  0
 23 25  1  0
 25 26  3  0
  6  2  1  0
 15  7  1  0
 24 19  1  0
 14 10  1  0
  1 27  1  0
  1 28  1  0
  1 29  1  0
  3 30  1  0
  5 31  1  0
  8 32  1  0
  9 33  1  0
 11 34  1  0
 13 35  1  0
 15 36  1  0
 18 37  1  0
 20 38  1  0
 21 39  1  0
 22 40  1  0
 24 41  1  0
M  END
$$$$
[H]OC(=O)c1sc(-c2c([H])c([H])c(C(F)(F)F)c([H])c2[H])nc1-c1c([H])c([H])c(OC([H])(C([H])([H])[H])C([H])([H])[H])c(C(F)(F)F)c1[H]
     RDKit          3D

 47 49  0  0  0  0  0  0  0  0999 V2000
   -5.6808    1.2238    0.1616 C   0  0  0  0  0  0  0  0  0  0  0  0
   -5.7896    0.0513   -0.8751 C   0  0  0  0  0  0  0  0  0  0  0  0
   -7.1670   -0.5110   -0.8431 C   0  0  0  0  0  0  0  0  0  0  0  0
   -4.8461   -0.9188   -0.3960 O   0  0  0  0  0  0  0  0  0  0  0  0
   -3.4950   -0.6578   -0.3865 C   0  0  0  0  0  0  0  0  0  0  0  0
   -2.9339    0.4819   -0.9236 C   0  0  0  0  0  0  0  0  0  0  0  0
   -1.5786    0.7126   -0.8482 C   0  0  0  0  0  0  0  0  0  0  0  0
   -0.7426   -0.2005   -0.2268 C   0  0  0  0  0  0  0  0  0  0  0  0
   -1.2938   -1.3251    0.2889 C   0  0  0  0  0  0  0  0  0  0  0  0
   -2.6555   -1.5975    0.2360 C   0  0  0  0  0  0  0  0  0  0  0  0
   -3.2155   -2.8287    0.8829 C   0  0  0  0  0  0  0  0  0  0  0  0
   -4.1351   -2.5101    1.8804 F   0  0  0  0  0  0  0  0  0  0  0  0
   -3.8133   -3.5380   -0.1566 F   0  0  0  0  0  0  0  0  0  0  0  0
   -2.2116   -3.5512    1.4469 F   0  0  0  0  0  0  0  0  0  0  0  0
    0.6471    0.2534    0.1486 C   0  0  0  0  0  0  0  0  0  0  0  0
    1.7467    0.0163   -0.4538 N   0  0  0  0  0  0  0  0  0  0  0  0
    2.8824    0.4012   -0.0113 C   0  0  0  0  0  0  0  0  0  0  0  0
    2.4053    1.2271    1.4697 S   0  0  0  0  0  0  0  0  0  0  0  0
    0.7083    0.9786    1.3564 C   0  0  0  0  0  0  0  0  0  0  0  0
   -0.3107    1.3858    2.2955 C   0  0  0  0  0  0  0  0  0  0  0  0
    0.0141    2.1665    3.3950 O   0  0  0  0  0  0  0  0  0  0  0  0
   -1.5179    1.0931    2.2106 O   0  0  0  0  0  0  0  0  0  0  0  0
    4.2854    0.2779   -0.3465 C   0  0  0  0  0  0  0  0  0  0  0  0
    4.8250    0.1925   -1.5974 C   0  0  0  0  0  0  0  0  0  0  0  0
    6.2191    0.0968   -1.8088 C   0  0  0  0  0  0  0  0  0  0  0  0
    7.0922    0.0766   -0.7381 C   0  0  0  0  0  0  0  0  0  0  0  0
    6.5580    0.1508    0.5279 C   0  0  0  0  0  0  0  0  0  0  0  0
    5.2114    0.2494    0.7399 C   0  0  0  0  0  0  0  0  0  0  0  0
    8.5931    0.0589   -0.8970 C   0  0  0  0  0  0  0  0  0  0  0  0
    9.1080   -1.1374   -0.5224 F   0  0  0  0  0  0  0  0  0  0  0  0
    9.1116    1.1188   -0.1276 F   0  0  0  0  0  0  0  0  0  0  0  0
    8.8597    0.3595   -2.1960 F   0  0  0  0  0  0  0  0  0  0  0  0
   -4.8387    1.0080    0.8432 H   0  0  0  0  0  0  0  0  0  0  0  0
   -5.4359    2.1636   -0.3337 H   0  0  0  0  0  0  0  0  0  0  0  0
   -6.6397    1.2064    0.7184 H   0  0  0  0  0  0  0  0  0  0  0  0
   -5.4282    0.4862   -1.8005 H   0  0  0  0  0  0  0  0  0  0  0  0
   -7.8687    0.3061   -0.4769 H   0  0  0  0  0  0  0  0  0  0  0  0
   -7.5513   -0.7719   -1.8718 H   0  0  0  0  0  0  0  0  0  0  0  0
   -7.2611   -1.3794   -0.1571 H   0  0  0  0  0  0  0  0  0  0  0  0
   -3.5546    1.2554   -1.4255 H   0  0  0  0  0  0  0  0  0  0  0  0
   -1.0850    1.5989   -1.2646 H   0  0  0  0  0  0  0  0  0  0  0  0
   -0.6213   -2.0474    0.7635 H   0  0  0  0  0  0  0  0  0  0  0  0
    0.6063    1.7491    4.1094 H   0  0  0  0  0  0  0  0  0  0  0  0
    4.1759    0.1986   -2.4745 H   0  0  0  0  0  0  0  0  0  0  0  0
    6.6172    0.0455   -2.8277 H   0  0  0  0  0  0  0  0  0  0  0  0
    7.2381    0.1212    1.3833 H   0  0  0  0  0  0  0  0  0  0  0  0
    4.7666    0.2632    1.7203 H   0  0  0  0  0  0  0  0  0  0  0  0
  1  2  1  0
  2  3  1  0
  2  4  1  0
  4  5  1  0
  5  6  2  0
  6  7  1  0
  7  8  2  0
  8  9  1  0
  9 10  2  0
 10 11  1  0
 11 12  1  0
 11 13  1  0
 11 14  1  0
  8 15  1  0
 15 16  1  0
 16 17  2  0
 17 18  1  0
 18 19  1  0
 19 20  1  0
 20 21  1  0
 20 22  2  0
 17 23  1  0
 23 24  2  0
 24 25  1  0
 25 26  2  0
 26 27  1  0
 27 28  2  0
 26 29  1  0
 29 30  1  0
 29 31  1  0
 29 32  1  0
 10  5  1  0
 19 15  2  0
 28 23  1  0
  1 33  1  0
  1 34  1  0
  1 35  1  0
  2 36  1  0
  3 37  1  0
  3 38  1  0
  3 39  1  0
  6 40  1  0
  7 41  1  0
  9 42  1  0
 21 43  1  0
 24 44  1  0
 25 45  1  0
 27 46  1  0
 28 47  1  0
M  END
$$$$
[H]OC(=O)[C@@]([H])(N([H])C(=O)c1c([H])c([H])c(-c2c([H])c([H])c(S(=O)(=O)N([H])[H])c([H])c2[H])c([H])c1[H])C([H])([H])c1c([H])c([H])c([H])c([H])c1[H]
     RDKit          3D

 50 52  0  0  0  0  0  0  0  0999 V2000
    9.6272   -0.9709   -0.3824 N   0  0  0  0  0  0  0  0  0  0  0  0
    8.9088    0.3163    0.4758 S   0  0  0  0  0  0  0  0  0  0  0  0
    9.2185    0.1922    1.9519 O   0  0  0  0  0  0  0  0  0  0  0  0
    9.3658    1.6623    0.0420 O   0  0  0  0  0  0  0  0  0  0  0  0
    7.1518    0.1552    0.3491 C   0  0  0  0  0  0  0  0  0  0  0  0
    6.4187   -0.5523    1.2721 C   0  0  0  0  0  0  0  0  0  0  0  0
    5.0580   -0.6638    1.1557 C   0  0  0  0  0  0  0  0  0  0  0  0
    4.3646   -0.0776    0.1177 C   0  0  0  0  0  0  0  0  0  0  0  0
    5.0719    0.6315   -0.8133 C   0  0  0  0  0  0  0  0  0  0  0  0
    6.4489    0.7416   -0.6916 C   0  0  0  0  0  0  0  0  0  0  0  0
    2.9200   -0.2466    0.0776 C   0  0  0  0  0  0  0  0  0  0  0  0
    2.0653    0.6949   -0.4444 C   0  0  0  0  0  0  0  0  0  0  0  0
    0.6919    0.5172   -0.4711 C   0  0  0  0  0  0  0  0  0  0  0  0
    0.1044   -0.6196    0.0278 C   0  0  0  0  0  0  0  0  0  0  0  0
    0.9749   -1.5851    0.5627 C   0  0  0  0  0  0  0  0  0  0  0  0
    2.3348   -1.3885    0.5788 C   0  0  0  0  0  0  0  0  0  0  0  0
   -1.3260   -0.8647    0.0353 C   0  0  0  0  0  0  0  0  0  0  0  0
   -1.7420   -1.9773    0.4280 O   0  0  0  0  0  0  0  0  0  0  0  0
   -2.2481    0.1042   -0.3818 N   0  0  0  0  0  0  0  0  0  0  0  0
   -3.7045   -0.1491   -0.3720 C   0  0  1  0  0  0  0  0  0  0  0  0
   -4.3875    0.8618    0.4776 C   0  0  0  0  0  0  0  0  0  0  0  0
   -5.8356    0.6885    0.5545 C   0  0  0  0  0  0  0  0  0  0  0  0
   -6.3527   -0.2119    1.4732 C   0  0  0  0  0  0  0  0  0  0  0  0
   -7.7011   -0.4027    1.6408 C   0  0  0  0  0  0  0  0  0  0  0  0
   -8.6012    0.3153    0.8796 C   0  0  0  0  0  0  0  0  0  0  0  0
   -8.1118    1.2273   -0.0515 C   0  0  0  0  0  0  0  0  0  0  0  0
   -6.7501    1.3927   -0.1927 C   0  0  0  0  0  0  0  0  0  0  0  0
   -4.2126   -0.1292   -1.7603 C   0  0  0  0  0  0  0  0  0  0  0  0
   -5.4975   -0.4327   -2.1334 O   0  0  0  0  0  0  0  0  0  0  0  0
   -3.4187    0.1862   -2.7046 O   0  0  0  0  0  0  0  0  0  0  0  0
    9.5307   -0.7509   -1.4152 H   0  0  0  0  0  0  0  0  0  0  0  0
    9.0648   -1.8367   -0.2320 H   0  0  0  0  0  0  0  0  0  0  0  0
    6.9414   -1.0255    2.1018 H   0  0  0  0  0  0  0  0  0  0  0  0
    4.5447   -1.2474    1.9356 H   0  0  0  0  0  0  0  0  0  0  0  0
    4.5349    1.1052   -1.6473 H   0  0  0  0  0  0  0  0  0  0  0  0
    7.0165    1.3069   -1.4332 H   0  0  0  0  0  0  0  0  0  0  0  0
    2.4961    1.5973   -0.8434 H   0  0  0  0  0  0  0  0  0  0  0  0
    0.0466    1.2802   -0.8913 H   0  0  0  0  0  0  0  0  0  0  0  0
    0.5458   -2.4979    0.9667 H   0  0  0  0  0  0  0  0  0  0  0  0
    2.9769   -2.1686    1.0051 H   0  0  0  0  0  0  0  0  0  0  0  0
   -1.9098    1.0280   -0.7064 H   0  0  0  0  0  0  0  0  0  0  0  0
   -3.8440   -1.1765    0.0176 H   0  0  0  0  0  0  0  0  0  0  0  0
   -4.0138    0.8285    1.5405 H   0  0  0  0  0  0  0  0  0  0  0  0
   -4.1410    1.9212    0.1386 H   0  0  0  0  0  0  0  0  0  0  0  0
   -5.6641   -0.7885    2.0833 H   0  0  0  0  0  0  0  0  0  0  0  0
   -8.1122   -1.1031    2.3554 H   0  0  0  0  0  0  0  0  0  0  0  0
   -9.6825    0.1815    0.9945 H   0  0  0  0  0  0  0  0  0  0  0  0
   -8.8477    1.7676   -0.6251 H   0  0  0  0  0  0  0  0  0  0  0  0
   -6.4060    2.1132   -0.9286 H   0  0  0  0  0  0  0  0  0  0  0  0
   -5.9136    0.0502   -2.9078 H   0  0  0  0  0  0  0  0  0  0  0  0
  1  2  1  0
  2  3  2  0
  2  4  2  0
  2  5  1  0
  5  6  2  0
  6  7  1  0
  7  8  2  0
  8  9  1  0
  9 10  2  0
  8 11  1  0
 11 12  2  0
 12 13  1  0
 13 14  2  0
 14 15  1  0
 15 16  2  0
 14 17  1  0
 17 18  2  0
 17 19  1  0
 19 20  1  0
 20 21  1  0
 21 22  1  0
 22 23  2  0
 23 24  1  0
 24 25  2  0
 25 26  1  0
 26 27  2  0
 20 28  1  0
 28 29  1  0
 28 30  2  0
 10  5  1  0
 16 11  1  0
 27 22  1  0
  1 31  1  0
  1 32  1  0
  6 33  1  0
  7 34  1  0
  9 35  1  0
 10 36  1  0
 12 37  1  0
 13 38  1  0
 15 39  1  0
 16 40  1  0
 19 41  1  0
 20 42  1  1
 21 43  1  0
 21 44  1  0
 23 45  1  0
 24 46  1  0
 25 47  1  0
 26 48  1  0
 27 49  1  0
 29 50  1  0
M  END
$$$$
[H]c1nc(C(=O)N([H])c2c([H])c([H])c(N3C([H])([H])C([H])([H])N(C([H])([H])[H])C([H])([H])C3([H])[H])c([H])c2[H])n([H])c1C#N
     RDKit          3D

 41 43  0  0  0  0  0  0  0  0999 V2000
   -6.2183    0.7740    0.0700 C   0  0  0  0  0  0  0  0  0  0  0  0
   -5.3643    0.0301    0.9848 N   0  0  0  0  0  0  0  0  0  0  0  0
   -4.4156    0.8729    1.6436 C   0  0  0  0  0  0  0  0  0  0  0  0
   -3.1006    0.1865    1.9548 C   0  0  0  0  0  0  0  0  0  0  0  0
   -2.5134   -0.2057    0.6925 N   0  0  0  0  0  0  0  0  0  0  0  0
   -3.4280   -0.6244   -0.3531 C   0  0  0  0  0  0  0  0  0  0  0  0
   -4.7639   -1.0370    0.2364 C   0  0  0  0  0  0  0  0  0  0  0  0
   -1.1141   -0.2037    0.4345 C   0  0  0  0  0  0  0  0  0  0  0  0
   -0.6307   -0.5231   -0.8110 C   0  0  0  0  0  0  0  0  0  0  0  0
    0.7461   -0.5334   -1.0989 C   0  0  0  0  0  0  0  0  0  0  0  0
    1.6767   -0.2235   -0.1471 C   0  0  0  0  0  0  0  0  0  0  0  0
    3.0860   -0.1914   -0.3316 N   0  0  0  0  0  0  0  0  0  0  0  0
    3.7657   -0.3119   -1.5315 C   0  0  0  0  0  0  0  0  0  0  0  0
    3.2268   -0.4641   -2.6288 O   0  0  0  0  0  0  0  0  0  0  0  0
    5.2427   -0.2595   -1.5425 C   0  0  0  0  0  0  0  0  0  0  0  0
    6.0650   -0.3560   -2.5885 N   0  0  0  0  0  0  0  0  0  0  0  0
    7.3301   -0.2595   -2.1723 C   0  0  0  0  0  0  0  0  0  0  0  0
    7.3330   -0.0944   -0.8076 C   0  0  0  0  0  0  0  0  0  0  0  0
    6.0336   -0.0997   -0.4593 N   0  0  0  0  0  0  0  0  0  0  0  0
    8.4948    0.0489    0.0266 C   0  0  0  0  0  0  0  0  0  0  0  0
    9.4435    0.1626    0.6846 N   0  0  0  0  0  0  0  0  0  0  0  0
    1.1629    0.1004    1.1211 C   0  0  0  0  0  0  0  0  0  0  0  0
   -0.1839    0.1096    1.4004 C   0  0  0  0  0  0  0  0  0  0  0  0
   -5.7133    0.8986   -0.9186 H   0  0  0  0  0  0  0  0  0  0  0  0
   -6.4880    1.7707    0.4461 H   0  0  0  0  0  0  0  0  0  0  0  0
   -7.1009    0.1262   -0.1328 H   0  0  0  0  0  0  0  0  0  0  0  0
   -4.1671    1.7148    0.9501 H   0  0  0  0  0  0  0  0  0  0  0  0
   -4.7830    1.3294    2.5815 H   0  0  0  0  0  0  0  0  0  0  0  0
   -3.2856   -0.7719    2.5153 H   0  0  0  0  0  0  0  0  0  0  0  0
   -2.5065    0.8912    2.5372 H   0  0  0  0  0  0  0  0  0  0  0  0
   -3.0382   -1.5684   -0.8381 H   0  0  0  0  0  0  0  0  0  0  0  0
   -3.5139    0.1540   -1.1100 H   0  0  0  0  0  0  0  0  0  0  0  0
   -4.6025   -1.9434    0.8583 H   0  0  0  0  0  0  0  0  0  0  0  0
   -5.4209   -1.3098   -0.5915 H   0  0  0  0  0  0  0  0  0  0  0  0
   -1.3308   -0.7746   -1.5977 H   0  0  0  0  0  0  0  0  0  0  0  0
    1.0548   -0.7979   -2.0877 H   0  0  0  0  0  0  0  0  0  0  0  0
    3.7084   -0.0636    0.5394 H   0  0  0  0  0  0  0  0  0  0  0  0
    8.2528   -0.2975   -2.7647 H   0  0  0  0  0  0  0  0  0  0  0  0
    5.7386    0.0105    0.5411 H   0  0  0  0  0  0  0  0  0  0  0  0
    1.8815    0.3500    1.8931 H   0  0  0  0  0  0  0  0  0  0  0  0
   -0.5596    0.3657    2.4019 H   0  0  0  0  0  0  0  0  0  0  0  0
  1  2  1  0
  2  3  1  0
  3  4  1  0
  4  5  1  0
  5  6  1  0
  6  7  1  0
  5  8  1  0
  8  9  2  0
  9 10  1  0
 10 11  2  0
 11 12  1  0
 12 13  1  0
 13 14  2  0
 13 15  1  0
 15 16  2  0
 16 17  1  0
 17 18  2  0
 18 19  1  0
 18 20  1  0
 20 21  3  0
 11 22  1  0
 22 23  2  0
  7  2  1  0
 23  8  1  0
 19 15  1  0
  1 24  1  0
  1 25  1  0
  1 26  1  0
  3 27  1  0
  3 28  1  0
  4 29  1  0
  4 30  1  0
  6 31  1  0
  6 32  1  0
  7 33  1  0
  7 34  1  0
  9 35  1  0
 10 36  1  0
 12 37  1  0
 17 38  1  0
 19 39  1  0
 22 40  1  0
 23 41  1  0
M  END
$$$$
[H]N=C(N([H])[H])N([H])C([H])([H])C([H])([H])C([H])([H])[C@]([H])(C(=O)N([H])[C@]([H])(C(=O)N([H])[C@]([H])(C(=O)N1C([H])([H])C([H])([H])C([H])([H])[C@@]1([H])C(=O)N([H])[C@]([H])(C(=O)N([H])[H])C([H])([H])[H])C([H])([H])c1c([H])c([H])c([H])c([H])c1[H])C([H])([H])c1c([H])c([H])c([H])c([H])c1[H])N([H])C(=O)[C@@]([H])(N([H])[H])C([H])([H])c1c([H])c([H])c([H])c([H])c1[H]
     RDKit          3D

111114  0  0  0  0  0  0  0  0999 V2000
    9.1584   -2.0289    2.9800 C   0  0  0  0  0  0  0  0  0  0  0  0
    8.8481   -0.6361    2.5433 C   0  0  2  0  0  0  0  0  0  0  0  0
    8.2077   -0.5514    1.2546 N   0  0  0  0  0  0  0  0  0  0  0  0
    7.1390    0.3297    0.9910 C   0  0  0  0  0  0  0  0  0  0  0  0
    6.7464    1.0683    1.9421 O   0  0  0  0  0  0  0  0  0  0  0  0
    6.4633    0.4273   -0.3438 C   0  0  2  0  0  0  0  0  0  0  0  0
    7.4316    0.6531   -1.4560 C   0  0  0  0  0  0  0  0  0  0  0  0
    7.6112    2.1352   -1.4915 C   0  0  0  0  0  0  0  0  0  0  0  0
    6.5097    2.6992   -0.6210 C   0  0  0  0  0  0  0  0  0  0  0  0
    5.5913    1.5575   -0.4046 N   0  0  0  0  0  0  0  0  0  0  0  0
    4.2042    1.6053   -0.2991 C   0  0  0  0  0  0  0  0  0  0  0  0
    3.7101    2.8108   -0.3137 O   0  0  0  0  0  0  0  0  0  0  0  0
    3.2199    0.5542   -0.1749 C   0  0  2  0  0  0  0  0  0  0  0  0
    3.0606   -0.2570   -1.4806 C   0  0  0  0  0  0  0  0  0  0  0  0
    2.6271    0.5613   -2.6188 C   0  0  0  0  0  0  0  0  0  0  0  0
    1.2872    0.7320   -2.8587 C   0  0  0  0  0  0  0  0  0  0  0  0
    0.8620    1.4804   -3.9190 C   0  0  0  0  0  0  0  0  0  0  0  0
    1.8057    2.0622   -4.7473 C   0  0  0  0  0  0  0  0  0  0  0  0
    3.1464    1.8803   -4.4918 C   0  0  0  0  0  0  0  0  0  0  0  0
    3.5881    1.1254   -3.4206 C   0  0  0  0  0  0  0  0  0  0  0  0
    1.9066    1.0539    0.2078 N   0  0  0  0  0  0  0  0  0  0  0  0
    1.0203    0.1822    0.8872 C   0  0  0  0  0  0  0  0  0  0  0  0
    1.4172   -1.0010    1.0991 O   0  0  0  0  0  0  0  0  0  0  0  0
   -0.3214    0.6128    1.3385 C   0  0  2  0  0  0  0  0  0  0  0  0
   -0.3986    0.6665    2.8444 C   0  0  0  0  0  0  0  0  0  0  0  0
    0.5163    1.5414    3.5349 C   0  0  0  0  0  0  0  0  0  0  0  0
    0.2807    2.8755    3.8132 C   0  0  0  0  0  0  0  0  0  0  0  0
    1.1937    3.6446    4.5029 C   0  0  0  0  0  0  0  0  0  0  0  0
    2.3807    3.0754    4.9323 C   0  0  0  0  0  0  0  0  0  0  0  0
    2.6543    1.7497    4.6745 C   0  0  0  0  0  0  0  0  0  0  0  0
    1.7302    0.9959    3.9842 C   0  0  0  0  0  0  0  0  0  0  0  0
   -1.2892   -0.4544    0.9804 N   0  0  0  0  0  0  0  0  0  0  0  0
   -2.5295   -0.1031    0.4004 C   0  0  0  0  0  0  0  0  0  0  0  0
   -2.7609    1.1203    0.2285 O   0  0  0  0  0  0  0  0  0  0  0  0
   -3.5898   -1.0385   -0.0284 C   0  0  1  0  0  0  0  0  0  0  0  0
   -4.0128   -2.0272    1.0108 C   0  0  0  0  0  0  0  0  0  0  0  0
   -5.0863   -2.9598    0.5307 C   0  0  0  0  0  0  0  0  0  0  0  0
   -5.4129   -3.9154    1.6721 C   0  0  0  0  0  0  0  0  0  0  0  0
   -6.4401   -4.8589    1.2867 N   0  0  0  0  0  0  0  0  0  0  0  0
   -6.1378   -5.8519    0.3036 C   0  0  0  0  0  0  0  0  0  0  0  0
   -5.1070   -6.7704    0.6192 N   0  0  0  0  0  0  0  0  0  0  0  0
   -6.7936   -5.8624   -0.7804 N   0  0  0  0  0  0  0  0  0  0  0  0
   -4.7462   -0.3486   -0.5212 N   0  0  0  0  0  0  0  0  0  0  0  0
   -5.1701   -0.2299   -1.8511 C   0  0  0  0  0  0  0  0  0  0  0  0
   -4.4864   -0.7821   -2.7459 O   0  0  0  0  0  0  0  0  0  0  0  0
   -6.3862    0.5206   -2.2548 C   0  0  1  0  0  0  0  0  0  0  0  0
   -6.4636    0.5813   -3.7031 N   0  0  0  0  0  0  0  0  0  0  0  0
   -7.6567   -0.2285   -1.8243 C   0  0  0  0  0  0  0  0  0  0  0  0
   -8.7981    0.5993   -2.2621 C   0  0  0  0  0  0  0  0  0  0  0  0
   -9.3402    0.4395   -3.5143 C   0  0  0  0  0  0  0  0  0  0  0  0
  -10.4229    1.2086   -3.9490 C   0  0  0  0  0  0  0  0  0  0  0  0
  -10.9689    2.1573   -3.1024 C   0  0  0  0  0  0  0  0  0  0  0  0
  -10.4358    2.3228   -1.8552 C   0  0  0  0  0  0  0  0  0  0  0  0
   -9.3697    1.5603   -1.4378 C   0  0  0  0  0  0  0  0  0  0  0  0
   10.1749    0.0769    2.4514 C   0  0  0  0  0  0  0  0  0  0  0  0
   10.9954    0.1162    3.5821 N   0  0  0  0  0  0  0  0  0  0  0  0
   10.5170    0.6130    1.3851 O   0  0  0  0  0  0  0  0  0  0  0  0
    8.2982   -2.6399    3.2799 H   0  0  0  0  0  0  0  0  0  0  0  0
    9.8062   -2.5232    2.2010 H   0  0  0  0  0  0  0  0  0  0  0  0
    9.8172   -1.9433    3.8909 H   0  0  0  0  0  0  0  0  0  0  0  0
    8.2966   -0.1066    3.3524 H   0  0  0  0  0  0  0  0  0  0  0  0
    8.5481   -1.1653    0.4928 H   0  0  0  0  0  0  0  0  0  0  0  0
    5.9668   -0.5280   -0.4934 H   0  0  0  0  0  0  0  0  0  0  0  0
    6.9217    0.3469   -2.4072 H   0  0  0  0  0  0  0  0  0  0  0  0
    8.3727    0.0745   -1.3935 H   0  0  0  0  0  0  0  0  0  0  0  0
    8.6171    2.4940   -1.1807 H   0  0  0  0  0  0  0  0  0  0  0  0
    7.4261    2.5277   -2.5397 H   0  0  0  0  0  0  0  0  0  0  0  0
    5.9188    3.4728   -1.1628 H   0  0  0  0  0  0  0  0  0  0  0  0
    6.8613    3.1364    0.3116 H   0  0  0  0  0  0  0  0  0  0  0  0
    3.5180   -0.2104    0.5558 H   0  0  0  0  0  0  0  0  0  0  0  0
    3.9856   -0.8110   -1.6450 H   0  0  0  0  0  0  0  0  0  0  0  0
    2.2929   -1.0303   -1.2066 H   0  0  0  0  0  0  0  0  0  0  0  0
    0.5173    0.2836   -2.2184 H   0  0  0  0  0  0  0  0  0  0  0  0
   -0.2095    1.6369   -4.1316 H   0  0  0  0  0  0  0  0  0  0  0  0
    1.4370    2.6418   -5.5813 H   0  0  0  0  0  0  0  0  0  0  0  0
    3.8789    2.3416   -5.1453 H   0  0  0  0  0  0  0  0  0  0  0  0
    4.6718    1.0014   -3.2475 H   0  0  0  0  0  0  0  0  0  0  0  0
    1.5845    2.0142    0.0091 H   0  0  0  0  0  0  0  0  0  0  0  0
   -0.6182    1.5130    0.8440 H   0  0  0  0  0  0  0  0  0  0  0  0
   -1.4455    0.9689    3.1588 H   0  0  0  0  0  0  0  0  0  0  0  0
   -0.2781   -0.3714    3.2171 H   0  0  0  0  0  0  0  0  0  0  0  0
   -0.6575    3.2730    3.4575 H   0  0  0  0  0  0  0  0  0  0  0  0
    0.9327    4.6836    4.6795 H   0  0  0  0  0  0  0  0  0  0  0  0
    3.0820    3.6985    5.4747 H   0  0  0  0  0  0  0  0  0  0  0  0
    3.5752    1.2729    4.9964 H   0  0  0  0  0  0  0  0  0  0  0  0
    1.9713   -0.0377    3.7981 H   0  0  0  0  0  0  0  0  0  0  0  0
   -1.0666   -1.4558    1.1483 H   0  0  0  0  0  0  0  0  0  0  0  0
   -3.1623   -1.5853   -0.9230 H   0  0  0  0  0  0  0  0  0  0  0  0
   -3.1390   -2.6381    1.3026 H   0  0  0  0  0  0  0  0  0  0  0  0
   -4.4011   -1.5451    1.9321 H   0  0  0  0  0  0  0  0  0  0  0  0
   -5.9959   -2.4186    0.2138 H   0  0  0  0  0  0  0  0  0  0  0  0
   -4.7684   -3.5825   -0.3287 H   0  0  0  0  0  0  0  0  0  0  0  0
   -4.4761   -4.4567    1.9963 H   0  0  0  0  0  0  0  0  0  0  0  0
   -5.7738   -3.3503    2.5502 H   0  0  0  0  0  0  0  0  0  0  0  0
   -7.3685   -4.7945    1.7302 H   0  0  0  0  0  0  0  0  0  0  0  0
   -4.3693   -6.9226   -0.0960 H   0  0  0  0  0  0  0  0  0  0  0  0
   -5.0642   -7.2932    1.5311 H   0  0  0  0  0  0  0  0  0  0  0  0
   -7.5423   -5.1702   -0.9706 H   0  0  0  0  0  0  0  0  0  0  0  0
   -5.3464    0.1285    0.2158 H   0  0  0  0  0  0  0  0  0  0  0  0
   -6.4614    1.5199   -1.7889 H   0  0  0  0  0  0  0  0  0  0  0  0
   -5.8881    1.4124   -3.9905 H   0  0  0  0  0  0  0  0  0  0  0  0
   -6.1210   -0.3065   -4.1028 H   0  0  0  0  0  0  0  0  0  0  0  0
   -7.6687   -1.2158   -2.3252 H   0  0  0  0  0  0  0  0  0  0  0  0
   -7.6129   -0.3662   -0.7358 H   0  0  0  0  0  0  0  0  0  0  0  0
   -8.9464   -0.2876   -4.2019 H   0  0  0  0  0  0  0  0  0  0  0  0
  -10.8592    1.0946   -4.9327 H   0  0  0  0  0  0  0  0  0  0  0  0
  -11.8186    2.7447   -3.4797 H   0  0  0  0  0  0  0  0  0  0  0  0
  -10.8515    3.0521   -1.1944 H   0  0  0  0  0  0  0  0  0  0  0  0
   -8.9303    1.6718   -0.4526 H   0  0  0  0  0  0  0  0  0  0  0  0
   12.0343    0.1142    3.4570 H   0  0  0  0  0  0  0  0  0  0  0  0
   10.6282    0.1463    4.5693 H   0  0  0  0  0  0  0  0  0  0  0  0
  1  2  1  0
  2  3  1  0
  3  4  1  0
  4  5  2  0
  4  6  1  0
  6  7  1  0
  7  8  1  0
  8  9  1  0
  9 10  1  0
 10 11  1  0
 11 12  2  0
 11 13  1  0
 13 14  1  0
 14 15  1  0
 15 16  2  0
 16 17  1  0
 17 18  2  0
 18 19  1  0
 19 20  2  0
 13 21  1  0
 21 22  1  0
 22 23  2  0
 22 24  1  0
 24 25  1  0
 25 26  1  0
 26 27  2  0
 27 28  1  0
 28 29  2  0
 29 30  1  0
 30 31  2  0
 24 32  1  0
 32 33  1  0
 33 34  2  0
 33 35  1  0
 35 36  1  0
 36 37  1  0
 37 38  1  0
 38 39  1  0
 39 40  1  0
 40 41  1  0
 40 42  2  3
 35 43  1  0
 43 44  1  0
 44 45  2  0
 44 46  1  0
 46 47  1  0
 46 48  1  0
 48 49  1  0
 49 50  2  0
 50 51  1  0
 51 52  2  0
 52 53  1  0
 53 54  2  0
  2 55  1  0
 55 56  1  0
 55 57  2  0
 10  6  1  0
 20 15  1  0
 31 26  1  0
 54 49  1  0
  1 58  1  0
  1 59  1  0
  1 60  1  0
  2 61  1  1
  3 62  1  0
  6 63  1  6
  7 64  1  0
  7 65  1  0
  8 66  1  0
  8 67  1  0
  9 68  1  0
  9 69  1  0
 13 70  1  1
 14 71  1  0
 14 72  1  0
 16 73  1  0
 17 74  1  0
 18 75  1  0
 19 76  1  0
 20 77  1  0
 21 78  1  0
 24 79  1  6
 25 80  1  0
 25 81  1  0
 27 82  1  0
 28 83  1  0
 29 84  1  0
 30 85  1  0
 31 86  1  0
 32 87  1  0
 35 88  1  6
 36 89  1  0
 36 90  1  0
 37 91  1  0
 37 92  1  0
 38 93  1  0
 38 94  1  0
 39 95  1  0
 41 96  1  0
 41 97  1  0
 42 98  1  0
 43 99  1  0
 46100  1  1
 47101  1  0
 47102  1  0
 48103  1  0
 48104  1  0
 50105  1  0
 51106  1  0
 52107  1  0
 53108  1  0
 54109  1  0
 56110  1  0
 56111  1  0
M  END
$$$$
[H]c1c([H])c(N2C([H])([H])[C@]([H])(c3c([H])c([H])c(Cl)c(Cl)c3[H])[C@]([H])(C([H])([H])[H])C2([H])[H])c([H])c([H])c1F
     RDKit          3D

 37 39  0  0  0  0  0  0  0  0999 V2000
   -1.1999   -2.1152    1.1313 C   0  0  0  0  0  0  0  0  0  0  0  0
   -0.8543   -1.6172   -0.2140 C   0  0  2  0  0  0  0  0  0  0  0  0
    0.6743   -1.7768   -0.3501 C   0  0  0  0  0  0  0  0  0  0  0  0
    1.2100   -0.4856    0.0359 N   0  0  0  0  0  0  0  0  0  0  0  0
    0.1299    0.3966    0.4369 C   0  0  0  0  0  0  0  0  0  0  0  0
   -0.9760   -0.1656   -0.4655 C   0  0  2  0  0  0  0  0  0  0  0  0
   -2.2236    0.4912   -0.3971 C   0  0  0  0  0  0  0  0  0  0  0  0
   -2.7734    1.1167   -1.5222 C   0  0  0  0  0  0  0  0  0  0  0  0
   -3.9715    1.7593   -1.4874 C   0  0  0  0  0  0  0  0  0  0  0  0
   -4.7106    1.8237   -0.3202 C   0  0  0  0  0  0  0  0  0  0  0  0
   -6.2395    2.6390   -0.2600 Cl  0  0  0  0  0  0  0  0  0  0  0  0
   -4.1891    1.2124    0.8091 C   0  0  0  0  0  0  0  0  0  0  0  0
   -5.1212    1.2933    2.2822 Cl  0  0  0  0  0  0  0  0  0  0  0  0
   -2.9746    0.5687    0.7477 C   0  0  0  0  0  0  0  0  0  0  0  0
    2.5832   -0.1243    0.0277 C   0  0  0  0  0  0  0  0  0  0  0  0
    3.5771   -1.0039   -0.3640 C   0  0  0  0  0  0  0  0  0  0  0  0
    4.9011   -0.6660   -0.3755 C   0  0  0  0  0  0  0  0  0  0  0  0
    5.2824    0.5878    0.0122 C   0  0  0  0  0  0  0  0  0  0  0  0
    6.5914    0.9919    0.0246 F   0  0  0  0  0  0  0  0  0  0  0  0
    4.3155    1.4747    0.4039 C   0  0  0  0  0  0  0  0  0  0  0  0
    2.9961    1.1374    0.4151 C   0  0  0  0  0  0  0  0  0  0  0  0
   -2.3220   -2.2443    1.1735 H   0  0  0  0  0  0  0  0  0  0  0  0
   -0.8379   -1.5025    1.9684 H   0  0  0  0  0  0  0  0  0  0  0  0
   -0.7956   -3.1358    1.2938 H   0  0  0  0  0  0  0  0  0  0  0  0
   -1.3019   -2.2488   -0.9869 H   0  0  0  0  0  0  0  0  0  0  0  0
    1.0569   -2.5326    0.3562 H   0  0  0  0  0  0  0  0  0  0  0  0
    0.9559   -2.0791   -1.3621 H   0  0  0  0  0  0  0  0  0  0  0  0
    0.2913    1.4361    0.0891 H   0  0  0  0  0  0  0  0  0  0  0  0
   -0.1206    0.3457    1.4921 H   0  0  0  0  0  0  0  0  0  0  0  0
   -0.5317   -0.0251   -1.5031 H   0  0  0  0  0  0  0  0  0  0  0  0
   -2.2347    1.0951   -2.4603 H   0  0  0  0  0  0  0  0  0  0  0  0
   -4.4053    2.2476   -2.3573 H   0  0  0  0  0  0  0  0  0  0  0  0
   -2.5854    0.1038    1.6277 H   0  0  0  0  0  0  0  0  0  0  0  0
    3.2778   -1.9946   -0.6706 H   0  0  0  0  0  0  0  0  0  0  0  0
    5.6871   -1.3456   -0.6799 H   0  0  0  0  0  0  0  0  0  0  0  0
    4.5983    2.4825    0.7178 H   0  0  0  0  0  0  0  0  0  0  0  0
    2.2407    1.8597    0.7311 H   0  0  0  0  0  0  0  0  0  0  0  0
  1  2  1  0
  2  3  1  0
  3  4  1  0
  4  5  1  0
  5  6  1  0
  6  7  1  0
  7  8  2  0
  8  9  1  0
  9 10  2  0
 10 11  1  0
 10 12  1  0
 12 13  1  0
 12 14  2  0
  4 15  1  0
 15 16  2  0
 16 17  1  0
 17 18  2  0
 18 19  1  0
 18 20  1  0
 20 21  2  0
  6  2  1  0
 14  7  1  0
 21 15  1  0
  1 22  1  0
  1 23  1  0
  1 24  1  0
  2 25  1  6
  3 26  1  0
  3 27  1  0
  5 28  1  0
  5 29  1  0
  6 30  1  6
  8 31  1  0
  9 32  1  0
 14 33  1  0
 16 34  1  0
 17 35  1  0
 20 36  1  0
 21 37  1  0
M  END
$$$$
[H]c1nc2c(c([H])c1C(=O)N([H])[C@@]([H])(C(=O)N1C([H])([H])C([H])([H])N(c3c([H])c([H])c(Cl)c([H])c3[H])C([H])([H])C1([H])[H])C([H])([H])[H])c([H])c([H])n2[H]
     RDKit          3D

 51 54  0  0  0  0  0  0  0  0999 V2000
   -0.4396   -1.9753    0.3431 C   0  0  0  0  0  0  0  0  0  0  0  0
   -0.9506   -0.6335   -0.2071 C   0  0  1  0  0  0  0  0  0  0  0  0
   -2.2946   -0.4196    0.3168 N   0  0  0  0  0  0  0  0  0  0  0  0
   -3.3758   -0.3704   -0.5713 C   0  0  0  0  0  0  0  0  0  0  0  0
   -3.1589   -0.5141   -1.8077 O   0  0  0  0  0  0  0  0  0  0  0  0
   -4.7269   -0.1556   -0.0579 C   0  0  0  0  0  0  0  0  0  0  0  0
   -5.0321    0.1499    1.2396 C   0  0  0  0  0  0  0  0  0  0  0  0
   -6.3141    0.3311    1.6365 N   0  0  0  0  0  0  0  0  0  0  0  0
   -7.3454    0.2218    0.7861 C   0  0  0  0  0  0  0  0  0  0  0  0
   -8.6941    0.3527    0.9293 N   0  0  0  0  0  0  0  0  0  0  0  0
   -9.2971    0.1381   -0.2590 C   0  0  0  0  0  0  0  0  0  0  0  0
   -8.2925   -0.1344   -1.1685 C   0  0  0  0  0  0  0  0  0  0  0  0
   -7.0570   -0.0850   -0.5237 C   0  0  0  0  0  0  0  0  0  0  0  0
   -5.7697   -0.2756   -0.9620 C   0  0  0  0  0  0  0  0  0  0  0  0
   -0.0631    0.4427    0.2860 C   0  0  0  0  0  0  0  0  0  0  0  0
   -0.5992    1.2883    1.0877 O   0  0  0  0  0  0  0  0  0  0  0  0
    1.2929    0.6088   -0.0482 N   0  0  0  0  0  0  0  0  0  0  0  0
    2.0531    1.6914    0.5180 C   0  0  0  0  0  0  0  0  0  0  0  0
    3.4736    1.7451    0.0143 C   0  0  0  0  0  0  0  0  0  0  0  0
    4.0282    0.4100   -0.0582 N   0  0  0  0  0  0  0  0  0  0  0  0
    3.2030   -0.7661   -0.2493 C   0  0  0  0  0  0  0  0  0  0  0  0
    1.9419   -0.2848   -0.9648 C   0  0  0  0  0  0  0  0  0  0  0  0
    5.4298    0.2332    0.0512 C   0  0  0  0  0  0  0  0  0  0  0  0
    5.9828   -1.0146    0.2006 C   0  0  0  0  0  0  0  0  0  0  0  0
    7.3388   -1.1527    0.2949 C   0  0  0  0  0  0  0  0  0  0  0  0
    8.1774   -0.0817    0.2455 C   0  0  0  0  0  0  0  0  0  0  0  0
    9.9263   -0.2593    0.3671 Cl  0  0  0  0  0  0  0  0  0  0  0  0
    7.6299    1.1674    0.0963 C   0  0  0  0  0  0  0  0  0  0  0  0
    6.2719    1.3396   -0.0014 C   0  0  0  0  0  0  0  0  0  0  0  0
    0.4774   -1.8050    0.9115 H   0  0  0  0  0  0  0  0  0  0  0  0
   -0.2389   -2.6380   -0.5158 H   0  0  0  0  0  0  0  0  0  0  0  0
   -1.2368   -2.4721    0.9373 H   0  0  0  0  0  0  0  0  0  0  0  0
   -0.9608   -0.7283   -1.2923 H   0  0  0  0  0  0  0  0  0  0  0  0
   -2.4284   -0.3100    1.3296 H   0  0  0  0  0  0  0  0  0  0  0  0
   -4.2143    0.2502    1.9674 H   0  0  0  0  0  0  0  0  0  0  0  0
   -9.1803    0.5836    1.8234 H   0  0  0  0  0  0  0  0  0  0  0  0
  -10.3505    0.1602   -0.5150 H   0  0  0  0  0  0  0  0  0  0  0  0
   -8.3688   -0.3593   -2.2267 H   0  0  0  0  0  0  0  0  0  0  0  0
   -5.5373   -0.5164   -1.9874 H   0  0  0  0  0  0  0  0  0  0  0  0
    1.5608    2.6642    0.2691 H   0  0  0  0  0  0  0  0  0  0  0  0
    2.1172    1.6047    1.6401 H   0  0  0  0  0  0  0  0  0  0  0  0
    4.0252    2.3874    0.7332 H   0  0  0  0  0  0  0  0  0  0  0  0
    3.5140    2.2624   -0.9841 H   0  0  0  0  0  0  0  0  0  0  0  0
    2.8784   -1.0906    0.7608 H   0  0  0  0  0  0  0  0  0  0  0  0
    3.7028   -1.5672   -0.8297 H   0  0  0  0  0  0  0  0  0  0  0  0
    2.3275    0.3333   -1.8299 H   0  0  0  0  0  0  0  0  0  0  0  0
    1.3471   -1.0778   -1.3893 H   0  0  0  0  0  0  0  0  0  0  0  0
    5.3654   -1.9025    0.2493 H   0  0  0  0  0  0  0  0  0  0  0  0
    7.7545   -2.1435    0.4119 H   0  0  0  0  0  0  0  0  0  0  0  0
    8.2648    2.0449    0.0528 H   0  0  0  0  0  0  0  0  0  0  0  0
    5.8419    2.3225   -0.1219 H   0  0  0  0  0  0  0  0  0  0  0  0
  1  2  1  0
  2  3  1  0
  3  4  1  0
  4  5  2  0
  4  6  1  0
  6  7  2  0
  7  8  1  0
  8  9  2  0
  9 10  1  0
 10 11  1  0
 11 12  2  0
 12 13  1  0
 13 14  2  0
  2 15  1  0
 15 16  2  0
 15 17  1  0
 17 18  1  0
 18 19  1  0
 19 20  1  0
 20 21  1  0
 21 22  1  0
 20 23  1  0
 23 24  2  0
 24 25  1  0
 25 26  2  0
 26 27  1  0
 26 28  1  0
 28 29  2  0
 14  6  1  0
 22 17  1  0
 29 23  1  0
 13  9  1  0
  1 30  1  0
  1 31  1  0
  1 32  1  0
  2 33  1  6
  3 34  1  0
  7 35  1  0
 10 36  1  0
 11 37  1  0
 12 38  1  0
 14 39  1  0
 18 40  1  0
 18 41  1  0
 19 42  1  0
 19 43  1  0
 21 44  1  0
 21 45  1  0
 22 46  1  0
 22 47  1  0
 24 48  1  0
 25 49  1  0
 28 50  1  0
 29 51  1  0
M  END
$$$$
[H]c1c([H])c([H])c(C([H])([H])[C@@]([H])(C(=O)C(=O)N([H])[H])N([H])C(=O)[C@@]([H])(N([H])C(=O)[C@@]2([H])N(C(=O)[C@@]([H])(N([H])C(=O)[C@@]([H])(N([H])C(=O)[C@@]([H])(N([H])C(=O)C([H])([H])[H])C([H])([H])c3c([H])c([H])c([H])c([H])c3[H])C([H])([H])c3c([H])c([H])c([H])c([H])c3[H])C([H])([H])c3c([H])c([H])c([H])c([H])c3[H])C([H])([H])C([H])([H])C2([H])[H])C([H])([H])[H])c([H])c1[H]
     RDKit          3D

115119  0  0  0  0  0  0  0  0999 V2000
    5.7372    1.5451   -3.0545 C   0  0  0  0  0  0  0  0  0  0  0  0
    4.9095    0.5667   -2.3202 C   0  0  2  0  0  0  0  0  0  0  0  0
    3.6797    1.0922   -1.7608 N   0  0  0  0  0  0  0  0  0  0  0  0
    2.4656    0.4203   -1.6600 C   0  0  0  0  0  0  0  0  0  0  0  0
    2.4624   -0.7915   -2.0776 O   0  0  0  0  0  0  0  0  0  0  0  0
    1.2557    0.9940   -1.1346 C   0  0  2  0  0  0  0  0  0  0  0  0
    1.4624    2.4336   -0.6979 C   0  0  0  0  0  0  0  0  0  0  0  0
    1.9243    2.2735    0.7203 C   0  0  0  0  0  0  0  0  0  0  0  0
    1.4217    0.9130    1.1764 C   0  0  0  0  0  0  0  0  0  0  0  0
    0.6838    0.4312    0.0555 N   0  0  0  0  0  0  0  0  0  0  0  0
   -0.4219   -0.4386    0.0948 C   0  0  0  0  0  0  0  0  0  0  0  0
   -0.8929   -0.8328   -1.0262 O   0  0  0  0  0  0  0  0  0  0  0  0
   -1.0940   -0.9226    1.3360 C   0  0  2  0  0  0  0  0  0  0  0  0
   -0.2283   -1.6985    2.2134 C   0  0  0  0  0  0  0  0  0  0  0  0
   -0.9675   -2.1246    3.4412 C   0  0  0  0  0  0  0  0  0  0  0  0
   -1.5836   -3.3358    3.5771 C   0  0  0  0  0  0  0  0  0  0  0  0
   -2.2748   -3.6412    4.7537 C   0  0  0  0  0  0  0  0  0  0  0  0
   -2.3589   -2.7481    5.8010 C   0  0  0  0  0  0  0  0  0  0  0  0
   -1.7270   -1.5337    5.6359 C   0  0  0  0  0  0  0  0  0  0  0  0
   -1.0431   -1.2184    4.4857 C   0  0  0  0  0  0  0  0  0  0  0  0
   -2.3169   -1.6489    0.9778 N   0  0  0  0  0  0  0  0  0  0  0  0
   -3.4229   -0.9817    0.4033 C   0  0  0  0  0  0  0  0  0  0  0  0
   -3.2253    0.2671    0.2018 O   0  0  0  0  0  0  0  0  0  0  0  0
   -4.7065   -1.5168    0.0304 C   0  0  2  0  0  0  0  0  0  0  0  0
   -4.7795   -2.9108   -0.5212 C   0  0  0  0  0  0  0  0  0  0  0  0
   -4.0714   -3.1842   -1.7484 C   0  0  0  0  0  0  0  0  0  0  0  0
   -2.8238   -3.7314   -1.7803 C   0  0  0  0  0  0  0  0  0  0  0  0
   -2.1531   -3.9840   -2.9485 C   0  0  0  0  0  0  0  0  0  0  0  0
   -2.7622   -3.6735   -4.1439 C   0  0  0  0  0  0  0  0  0  0  0  0
   -4.0416   -3.1097   -4.1822 C   0  0  0  0  0  0  0  0  0  0  0  0
   -4.6502   -2.8851   -2.9807 C   0  0  0  0  0  0  0  0  0  0  0  0
   -5.5558   -0.6390   -0.7599 N   0  0  0  0  0  0  0  0  0  0  0  0
   -6.7909   -0.1603   -0.2547 C   0  0  0  0  0  0  0  0  0  0  0  0
   -7.1268   -0.4897    0.9411 O   0  0  0  0  0  0  0  0  0  0  0  0
   -7.7400    0.6768   -0.9918 C   0  0  2  0  0  0  0  0  0  0  0  0
   -7.1888    1.9645   -1.4666 C   0  0  0  0  0  0  0  0  0  0  0  0
   -6.7132    2.9296   -0.4796 C   0  0  0  0  0  0  0  0  0  0  0  0
   -7.6607    3.7601    0.1154 C   0  0  0  0  0  0  0  0  0  0  0  0
   -7.2738    4.7163    1.0128 C   0  0  0  0  0  0  0  0  0  0  0  0
   -5.9533    4.9100    1.3736 C   0  0  0  0  0  0  0  0  0  0  0  0
   -5.0284    4.0694    0.7678 C   0  0  0  0  0  0  0  0  0  0  0  0
   -5.4030    3.1154   -0.1266 C   0  0  0  0  0  0  0  0  0  0  0  0
   -8.9339    0.8932   -0.1668 N   0  0  0  0  0  0  0  0  0  0  0  0
  -10.1947    0.5207   -0.6296 C   0  0  0  0  0  0  0  0  0  0  0  0
  -11.4173    0.7183    0.1732 C   0  0  0  0  0  0  0  0  0  0  0  0
  -10.3070   -0.0059   -1.7737 O   0  0  0  0  0  0  0  0  0  0  0  0
    5.7264   -0.2265   -1.3712 C   0  0  0  0  0  0  0  0  0  0  0  0
    5.2129   -1.0474   -0.5835 O   0  0  0  0  0  0  0  0  0  0  0  0
    7.1579   -0.0771   -1.3267 N   0  0  0  0  0  0  0  0  0  0  0  0
    7.9751   -0.8802   -0.4290 C   0  0  1  0  0  0  0  0  0  0  0  0
    9.3543   -1.0765   -0.9419 C   0  0  0  0  0  0  0  0  0  0  0  0
   10.1369    0.1301   -1.1695 C   0  0  0  0  0  0  0  0  0  0  0  0
   10.1048    0.7500   -2.4195 C   0  0  0  0  0  0  0  0  0  0  0  0
   10.8286    1.9069   -2.6559 C   0  0  0  0  0  0  0  0  0  0  0  0
   11.6048    2.4792   -1.6606 C   0  0  0  0  0  0  0  0  0  0  0  0
   11.6537    1.8832   -0.4130 C   0  0  0  0  0  0  0  0  0  0  0  0
   10.9102    0.7262   -0.2266 C   0  0  0  0  0  0  0  0  0  0  0  0
    7.9534   -0.3196    0.9479 C   0  0  0  0  0  0  0  0  0  0  0  0
    7.4330    0.7918    1.2094 O   0  0  0  0  0  0  0  0  0  0  0  0
    8.5434   -1.0799    2.0305 C   0  0  0  0  0  0  0  0  0  0  0  0
    8.5080   -0.5922    3.3751 N   0  0  0  0  0  0  0  0  0  0  0  0
    9.1091   -2.1933    1.8617 O   0  0  0  0  0  0  0  0  0  0  0  0
    5.1065    2.2635   -3.6285 H   0  0  0  0  0  0  0  0  0  0  0  0
    6.4054    1.0617   -3.7837 H   0  0  0  0  0  0  0  0  0  0  0  0
    6.3703    2.1739   -2.3864 H   0  0  0  0  0  0  0  0  0  0  0  0
    4.5298   -0.2470   -3.0417 H   0  0  0  0  0  0  0  0  0  0  0  0
    3.7510    2.0812   -1.4030 H   0  0  0  0  0  0  0  0  0  0  0  0
    0.4328    1.0024   -1.9566 H   0  0  0  0  0  0  0  0  0  0  0  0
    2.0888    3.0245   -1.3517 H   0  0  0  0  0  0  0  0  0  0  0  0
    0.3964    2.8587   -0.6982 H   0  0  0  0  0  0  0  0  0  0  0  0
    3.0084    2.2901    0.8003 H   0  0  0  0  0  0  0  0  0  0  0  0
    1.4289    3.0684    1.3221 H   0  0  0  0  0  0  0  0  0  0  0  0
    2.2703    0.2711    1.4988 H   0  0  0  0  0  0  0  0  0  0  0  0
    0.7763    1.0388    2.0974 H   0  0  0  0  0  0  0  0  0  0  0  0
   -1.4625    0.0142    1.8387 H   0  0  0  0  0  0  0  0  0  0  0  0
    0.0125   -2.6940    1.6977 H   0  0  0  0  0  0  0  0  0  0  0  0
    0.7463   -1.2779    2.4565 H   0  0  0  0  0  0  0  0  0  0  0  0
   -1.5441   -4.0761    2.7976 H   0  0  0  0  0  0  0  0  0  0  0  0
   -2.7626   -4.6168    4.8377 H   0  0  0  0  0  0  0  0  0  0  0  0
   -2.9001   -2.9845    6.7208 H   0  0  0  0  0  0  0  0  0  0  0  0
   -1.7717   -0.8088    6.4352 H   0  0  0  0  0  0  0  0  0  0  0  0
   -0.5410   -0.2659    4.3485 H   0  0  0  0  0  0  0  0  0  0  0  0
   -2.3908   -2.6631    1.1362 H   0  0  0  0  0  0  0  0  0  0  0  0
   -5.2915   -1.6030    1.0280 H   0  0  0  0  0  0  0  0  0  0  0  0
   -5.8847   -3.1021   -0.6855 H   0  0  0  0  0  0  0  0  0  0  0  0
   -4.5199   -3.6054    0.3141 H   0  0  0  0  0  0  0  0  0  0  0  0
   -2.2960   -4.0071   -0.8559 H   0  0  0  0  0  0  0  0  0  0  0  0
   -1.1419   -4.4246   -2.9270 H   0  0  0  0  0  0  0  0  0  0  0  0
   -2.2490   -3.8649   -5.0683 H   0  0  0  0  0  0  0  0  0  0  0  0
   -4.5186   -2.8734   -5.1444 H   0  0  0  0  0  0  0  0  0  0  0  0
   -5.6583   -2.4456   -3.0238 H   0  0  0  0  0  0  0  0  0  0  0  0
   -5.2718   -0.3468   -1.7115 H   0  0  0  0  0  0  0  0  0  0  0  0
   -8.1390    0.1383   -1.9024 H   0  0  0  0  0  0  0  0  0  0  0  0
   -6.3071    1.7321   -2.1485 H   0  0  0  0  0  0  0  0  0  0  0  0
   -7.9101    2.4689   -2.1753 H   0  0  0  0  0  0  0  0  0  0  0  0
   -8.6989    3.6412   -0.1422 H   0  0  0  0  0  0  0  0  0  0  0  0
   -8.0399    5.3648    1.4679 H   0  0  0  0  0  0  0  0  0  0  0  0
   -5.6705    5.6784    2.0881 H   0  0  0  0  0  0  0  0  0  0  0  0
   -3.9843    4.2247    1.0539 H   0  0  0  0  0  0  0  0  0  0  0  0
   -4.6473    2.4961   -0.5875 H   0  0  0  0  0  0  0  0  0  0  0  0
   -8.8185    1.3288    0.7624 H   0  0  0  0  0  0  0  0  0  0  0  0
  -11.1505    0.6038    1.2330 H   0  0  0  0  0  0  0  0  0  0  0  0
  -11.8418    1.7182   -0.0553 H   0  0  0  0  0  0  0  0  0  0  0  0
  -12.1916   -0.0431   -0.0647 H   0  0  0  0  0  0  0  0  0  0  0  0
    7.5692    0.6298   -1.9587 H   0  0  0  0  0  0  0  0  0  0  0  0
    7.4543   -1.8583   -0.3297 H   0  0  0  0  0  0  0  0  0  0  0  0
    9.8817   -1.8269   -0.3253 H   0  0  0  0  0  0  0  0  0  0  0  0
    9.2485   -1.6291   -1.9459 H   0  0  0  0  0  0  0  0  0  0  0  0
    9.5365    0.3736   -3.2551 H   0  0  0  0  0  0  0  0  0  0  0  0
   10.8193    2.4215   -3.6207 H   0  0  0  0  0  0  0  0  0  0  0  0
   12.1705    3.3835   -1.8286 H   0  0  0  0  0  0  0  0  0  0  0  0
   12.2444    2.2923    0.3928 H   0  0  0  0  0  0  0  0  0  0  0  0
   10.9851    0.2903    0.7593 H   0  0  0  0  0  0  0  0  0  0  0  0
    7.6091   -0.5546    3.8613 H   0  0  0  0  0  0  0  0  0  0  0  0
    9.3800   -0.2949    3.8187 H   0  0  0  0  0  0  0  0  0  0  0  0
  1  2  1  0
  2  3  1  0
  3  4  1  0
  4  5  2  0
  4  6  1  0
  6  7  1  0
  7  8  1  0
  8  9  1  0
  9 10  1  0
 10 11  1  0
 11 12  2  0
 11 13  1  0
 13 14  1  0
 14 15  1  0
 15 16  2  0
 16 17  1  0
 17 18  2  0
 18 19  1  0
 19 20  2  0
 13 21  1  0
 21 22  1  0
 22 23  2  0
 22 24  1  0
 24 25  1  0
 25 26  1  0
 26 27  2  0
 27 28  1  0
 28 29  2  0
 29 30  1  0
 30 31  2  0
 24 32  1  0
 32 33  1  0
 33 34  2  0
 33 35  1  0
 35 36  1  0
 36 37  1  0
 37 38  2  0
 38 39  1  0
 39 40  2  0
 40 41  1  0
 41 42  2  0
 35 43  1  0
 43 44  1  0
 44 45  1  0
 44 46  2  0
  2 47  1  0
 47 48  2  0
 47 49  1  0
 49 50  1  0
 50 51  1  0
 51 52  1  0
 52 53  2  0
 53 54  1  0
 54 55  2  0
 55 56  1  0
 56 57  2  0
 50 58  1  0
 58 59  2  0
 58 60  1  0
 60 61  1  0
 60 62  2  0
 10  6  1  0
 20 15  1  0
 31 26  1  0
 42 37  1  0
 57 52  1  0
  1 63  1  0
  1 64  1  0
  1 65  1  0
  2 66  1  6
  3 67  1  0
  6 68  1  6
  7 69  1  0
  7 70  1  0
  8 71  1  0
  8 72  1  0
  9 73  1  0
  9 74  1  0
 13 75  1  1
 14 76  1  0
 14 77  1  0
 16 78  1  0
 17 79  1  0
 18 80  1  0
 19 81  1  0
 20 82  1  0
 21 83  1  0
 24 84  1  1
 25 85  1  0
 25 86  1  0
 27 87  1  0
 28 88  1  0
 29 89  1  0
 30 90  1  0
 31 91  1  0
 32 92  1  0
 35 93  1  6
 36 94  1  0
 36 95  1  0
 38 96  1  0
 39 97  1  0
 40 98  1  0
 41 99  1  0
 42100  1  0
 43101  1  0
 45102  1  0
 45103  1  0
 45104  1  0
 49105  1  0
 50106  1  1
 51107  1  0
 51108  1  0
 53109  1  0
 54110  1  0
 55111  1  0
 56112  1  0
 57113  1  0
 61114  1  0
 61115  1  0
M  END
$$$$
[H]c1nc(N([H])c2c([H])c([H])c(N3C([H])([H])C([H])([H])C([H])([H])C3([H])[H])c([H])c2OC([H])([H])[H])nc(N([H])c2c([H])c([H])c([H])c([H])c2S(=O)(=O)C(C([H])([H])[H])(C([H])([H])[H])C([H])([H])[H])c1Cl
     RDKit          3D

 65 68  0  0  0  0  0  0  0  0999 V2000
    4.1539    3.3902   -0.1237 C   0  0  0  0  0  0  0  0  0  0  0  0
    3.3546    2.2531   -0.1134 O   0  0  0  0  0  0  0  0  0  0  0  0
    3.9096    0.9979   -0.1651 C   0  0  0  0  0  0  0  0  0  0  0  0
    5.2730    0.8915   -0.2274 C   0  0  0  0  0  0  0  0  0  0  0  0
    5.8678   -0.3558   -0.2806 C   0  0  0  0  0  0  0  0  0  0  0  0
    5.0566   -1.4667   -0.2691 C   0  0  0  0  0  0  0  0  0  0  0  0
    3.6530   -1.3154   -0.2041 C   0  0  0  0  0  0  0  0  0  0  0  0
    3.0358   -0.1057   -0.1507 C   0  0  0  0  0  0  0  0  0  0  0  0
    1.6810    0.1379   -0.0839 N   0  0  0  0  0  0  0  0  0  0  0  0
    0.6525   -0.8214   -0.0683 C   0  0  0  0  0  0  0  0  0  0  0  0
    0.8780   -2.1186   -0.1194 N   0  0  0  0  0  0  0  0  0  0  0  0
   -0.0912   -3.0154   -0.1039 C   0  0  0  0  0  0  0  0  0  0  0  0
   -1.3923   -2.5702   -0.0312 C   0  0  0  0  0  0  0  0  0  0  0  0
   -2.6799   -3.7230   -0.0093 Cl  0  0  0  0  0  0  0  0  0  0  0  0
   -1.7155   -1.1922    0.0269 C   0  0  0  0  0  0  0  0  0  0  0  0
   -3.0763   -0.8313    0.0889 N   0  0  0  0  0  0  0  0  0  0  0  0
   -3.5669    0.4708    0.1632 C   0  0  0  0  0  0  0  0  0  0  0  0
   -2.8286    1.6212    0.3254 C   0  0  0  0  0  0  0  0  0  0  0  0
   -3.4105    2.8921    0.4178 C   0  0  0  0  0  0  0  0  0  0  0  0
   -4.7544    3.0286    0.3487 C   0  0  0  0  0  0  0  0  0  0  0  0
   -5.5542    1.8889    0.1840 C   0  0  0  0  0  0  0  0  0  0  0  0
   -4.9768    0.6587    0.0945 C   0  0  0  0  0  0  0  0  0  0  0  0
   -5.9559   -0.7573   -0.1146 S   0  0  0  0  0  0  0  0  0  0  0  0
   -5.9044   -1.6715    1.1027 O   0  0  0  0  0  0  0  0  0  0  0  0
   -5.6015   -1.5417   -1.3604 O   0  0  0  0  0  0  0  0  0  0  0  0
   -7.6797   -0.3084   -0.2384 C   0  0  0  0  0  0  0  0  0  0  0  0
   -7.9795    0.5800   -1.4057 C   0  0  0  0  0  0  0  0  0  0  0  0
   -8.2208    0.2800    1.0257 C   0  0  0  0  0  0  0  0  0  0  0  0
   -8.4694   -1.6363   -0.4444 C   0  0  0  0  0  0  0  0  0  0  0  0
   -0.6576   -0.4039    0.0040 N   0  0  0  0  0  0  0  0  0  0  0  0
    7.2797   -0.4994   -0.3463 N   0  0  0  0  0  0  0  0  0  0  0  0
    7.9934   -1.7576   -0.3945 C   0  0  0  0  0  0  0  0  0  0  0  0
    9.4336   -1.4113   -0.6984 C   0  0  0  0  0  0  0  0  0  0  0  0
    9.3143   -0.0229   -1.2941 C   0  0  0  0  0  0  0  0  0  0  0  0
    8.2421    0.5832   -0.3770 C   0  0  0  0  0  0  0  0  0  0  0  0
    4.9483    3.3350    0.6650 H   0  0  0  0  0  0  0  0  0  0  0  0
    3.5186    4.2963    0.0637 H   0  0  0  0  0  0  0  0  0  0  0  0
    4.6379    3.5698   -1.1080 H   0  0  0  0  0  0  0  0  0  0  0  0
    5.9049    1.7695   -0.2361 H   0  0  0  0  0  0  0  0  0  0  0  0
    5.4899   -2.4605   -0.3097 H   0  0  0  0  0  0  0  0  0  0  0  0
    3.1091   -2.2368   -0.1993 H   0  0  0  0  0  0  0  0  0  0  0  0
    1.3696    1.1813   -0.0376 H   0  0  0  0  0  0  0  0  0  0  0  0
    0.1422   -4.0826   -0.1482 H   0  0  0  0  0  0  0  0  0  0  0  0
   -3.7789   -1.6344    0.0899 H   0  0  0  0  0  0  0  0  0  0  0  0
   -1.7540    1.5436    0.3923 H   0  0  0  0  0  0  0  0  0  0  0  0
   -2.7700    3.7218    0.5412 H   0  0  0  0  0  0  0  0  0  0  0  0
   -5.2444    4.0080    0.4175 H   0  0  0  0  0  0  0  0  0  0  0  0
   -6.6230    2.0760    0.1463 H   0  0  0  0  0  0  0  0  0  0  0  0
   -7.0673    0.9670   -1.9033 H   0  0  0  0  0  0  0  0  0  0  0  0
   -8.5740    1.4419   -1.0516 H   0  0  0  0  0  0  0  0  0  0  0  0
   -8.5773    0.0279   -2.1737 H   0  0  0  0  0  0  0  0  0  0  0  0
   -8.7987    1.2272    0.8064 H   0  0  0  0  0  0  0  0  0  0  0  0
   -7.4225    0.5064    1.7715 H   0  0  0  0  0  0  0  0  0  0  0  0
   -8.9638   -0.4023    1.4680 H   0  0  0  0  0  0  0  0  0  0  0  0
   -9.5235   -1.3556   -0.5600 H   0  0  0  0  0  0  0  0  0  0  0  0
   -8.0166   -2.1065   -1.3322 H   0  0  0  0  0  0  0  0  0  0  0  0
   -8.3017   -2.2259    0.4913 H   0  0  0  0  0  0  0  0  0  0  0  0
    7.6247   -2.4189   -1.2072 H   0  0  0  0  0  0  0  0  0  0  0  0
    7.8869   -2.3030    0.5684 H   0  0  0  0  0  0  0  0  0  0  0  0
    9.9311   -2.1247   -1.3546 H   0  0  0  0  0  0  0  0  0  0  0  0
    9.9572   -1.2816    0.2795 H   0  0  0  0  0  0  0  0  0  0  0  0
    8.8892   -0.0297   -2.3042 H   0  0  0  0  0  0  0  0  0  0  0  0
   10.2455    0.5558   -1.2003 H   0  0  0  0  0  0  0  0  0  0  0  0
    7.8600    1.4675   -0.9232 H   0  0  0  0  0  0  0  0  0  0  0  0
    8.6370    0.8194    0.6121 H   0  0  0  0  0  0  0  0  0  0  0  0
  1  2  1  0
  2  3  1  0
  3  4  2  0
  4  5  1  0
  5  6  2  0
  6  7  1  0
  7  8  2  0
  8  9  1  0
  9 10  1  0
 10 11  2  0
 11 12  1  0
 12 13  2  0
 13 14  1  0
 13 15  1  0
 15 16  1  0
 16 17  1  0
 17 18  2  0
 18 19  1  0
 19 20  2  0
 20 21  1  0
 21 22  2  0
 22 23  1  0
 23 24  2  0
 23 25  2  0
 23 26  1  0
 26 27  1  0
 26 28  1  0
 26 29  1  0
 15 30  2  0
  5 31  1  0
 31 32  1  0
 32 33  1  0
 33 34  1  0
 34 35  1  0
  8  3  1  0
 30 10  1  0
 35 31  1  0
 22 17  1  0
  1 36  1  0
  1 37  1  0
  1 38  1  0
  4 39  1  0
  6 40  1  0
  7 41  1  0
  9 42  1  0
 12 43  1  0
 16 44  1  0
 18 45  1  0
 19 46  1  0
 20 47  1  0
 21 48  1  0
 27 49  1  0
 27 50  1  0
 27 51  1  0
 28 52  1  0
 28 53  1  0
 28 54  1  0
 29 55  1  0
 29 56  1  0
 29 57  1  0
 32 58  1  0
 32 59  1  0
 33 60  1  0
 33 61  1  0
 34 62  1  0
 34 63  1  0
 35 64  1  0
 35 65  1  0
M  END
$$$$
[H]c1c([H])c(C(=O)N2C([H])([H])C([H])([H])N(C(=O)c3c([H])c([H])c(Cl)c([H])c3[H])C([H])([H])[C@@]2([H])C([H])([H])[H])c([H])c(-c2c([H])c([H])c([H])c(C(F)(F)F)c2[H])c1[H]
     RDKit          3D

 56 59  0  0  0  0  0  0  0  0999 V2000
   -2.1488    1.3609    0.9992 C   0  0  0  0  0  0  0  0  0  0  0  0
   -2.0595    0.6830   -0.3554 C   0  0  2  0  0  0  0  0  0  0  0  0
   -3.3039   -0.1019   -0.6663 C   0  0  0  0  0  0  0  0  0  0  0  0
   -3.5150   -1.0388    0.4237 N   0  0  0  0  0  0  0  0  0  0  0  0
   -2.4645   -1.8739    0.8778 C   0  0  0  0  0  0  0  0  0  0  0  0
   -1.0913   -1.4606    0.5054 C   0  0  0  0  0  0  0  0  0  0  0  0
   -0.9350   -0.2737   -0.2622 N   0  0  0  0  0  0  0  0  0  0  0  0
    0.2741    0.1615   -0.8481 C   0  0  0  0  0  0  0  0  0  0  0  0
    0.3286    1.3615   -1.3349 O   0  0  0  0  0  0  0  0  0  0  0  0
    1.4987   -0.5853   -0.9649 C   0  0  0  0  0  0  0  0  0  0  0  0
    1.6248   -1.9219   -1.1531 C   0  0  0  0  0  0  0  0  0  0  0  0
    2.8787   -2.5123   -1.0105 C   0  0  0  0  0  0  0  0  0  0  0  0
    3.9791   -1.7605   -0.6833 C   0  0  0  0  0  0  0  0  0  0  0  0
    3.8838   -0.3922   -0.4863 C   0  0  0  0  0  0  0  0  0  0  0  0
    2.6522    0.1754   -0.6305 C   0  0  0  0  0  0  0  0  0  0  0  0
    5.0468    0.3776   -0.0203 C   0  0  0  0  0  0  0  0  0  0  0  0
    4.8427    1.5321    0.6962 C   0  0  0  0  0  0  0  0  0  0  0  0
    5.9058    2.2481    1.2648 C   0  0  0  0  0  0  0  0  0  0  0  0
    7.1667    1.7436    1.0723 C   0  0  0  0  0  0  0  0  0  0  0  0
    7.4342    0.5865    0.3621 C   0  0  0  0  0  0  0  0  0  0  0  0
    6.3306   -0.0791   -0.1813 C   0  0  0  0  0  0  0  0  0  0  0  0
    8.8220    0.0603    0.2235 C   0  0  0  0  0  0  0  0  0  0  0  0
    8.8719   -0.8103   -0.8441 F   0  0  0  0  0  0  0  0  0  0  0  0
    9.1581   -0.7041    1.3370 F   0  0  0  0  0  0  0  0  0  0  0  0
    9.6823    1.0819   -0.0022 F   0  0  0  0  0  0  0  0  0  0  0  0
   -4.7886   -1.1035    1.0244 C   0  0  0  0  0  0  0  0  0  0  0  0
   -5.0489   -1.9201    1.9591 O   0  0  0  0  0  0  0  0  0  0  0  0
   -5.8762   -0.2329    0.6013 C   0  0  0  0  0  0  0  0  0  0  0  0
   -6.0227    1.0524    1.0648 C   0  0  0  0  0  0  0  0  0  0  0  0
   -7.0202    1.8918    0.6340 C   0  0  0  0  0  0  0  0  0  0  0  0
   -7.9235    1.4238   -0.3150 C   0  0  0  0  0  0  0  0  0  0  0  0
   -9.2148    2.4675   -0.9147 Cl  0  0  0  0  0  0  0  0  0  0  0  0
   -7.8005    0.1395   -0.7971 C   0  0  0  0  0  0  0  0  0  0  0  0
   -6.7884   -0.6752   -0.3427 C   0  0  0  0  0  0  0  0  0  0  0  0
   -2.7573    2.2824    0.9343 H   0  0  0  0  0  0  0  0  0  0  0  0
   -1.1315    1.6187    1.3822 H   0  0  0  0  0  0  0  0  0  0  0  0
   -2.6629    0.7101    1.7408 H   0  0  0  0  0  0  0  0  0  0  0  0
   -1.8438    1.4484   -1.1368 H   0  0  0  0  0  0  0  0  0  0  0  0
   -3.0674   -0.7091   -1.5837 H   0  0  0  0  0  0  0  0  0  0  0  0
   -4.1986    0.5106   -0.8226 H   0  0  0  0  0  0  0  0  0  0  0  0
   -2.7064   -2.9217    0.5208 H   0  0  0  0  0  0  0  0  0  0  0  0
   -2.5418   -1.9541    1.9970 H   0  0  0  0  0  0  0  0  0  0  0  0
   -0.6193   -2.3230    0.0367 H   0  0  0  0  0  0  0  0  0  0  0  0
   -0.4448   -1.2967    1.4428 H   0  0  0  0  0  0  0  0  0  0  0  0
    0.7799   -2.5279   -1.4710 H   0  0  0  0  0  0  0  0  0  0  0  0
    2.9214   -3.5630   -1.1707 H   0  0  0  0  0  0  0  0  0  0  0  0
    4.9127   -2.2414   -0.5863 H   0  0  0  0  0  0  0  0  0  0  0  0
    2.5521    1.2427   -0.4882 H   0  0  0  0  0  0  0  0  0  0  0  0
    3.8763    1.9442    0.8518 H   0  0  0  0  0  0  0  0  0  0  0  0
    5.7260    3.1408    1.8204 H   0  0  0  0  0  0  0  0  0  0  0  0
    8.0356    2.2650    1.4913 H   0  0  0  0  0  0  0  0  0  0  0  0
    6.4993   -0.9724   -0.7509 H   0  0  0  0  0  0  0  0  0  0  0  0
   -5.3256    1.4148    1.8037 H   0  0  0  0  0  0  0  0  0  0  0  0
   -7.1579    2.9024    0.9836 H   0  0  0  0  0  0  0  0  0  0  0  0
   -8.5267   -0.1884   -1.5462 H   0  0  0  0  0  0  0  0  0  0  0  0
   -6.6988   -1.6832   -0.7203 H   0  0  0  0  0  0  0  0  0  0  0  0
  1  2  1  0
  2  3  1  0
  3  4  1  0
  4  5  1  0
  5  6  1  0
  6  7  1  0
  7  8  1  0
  8  9  2  0
  8 10  1  0
 10 11  2  0
 11 12  1  0
 12 13  2  0
 13 14  1  0
 14 15  2  0
 14 16  1  0
 16 17  2  0
 17 18  1  0
 18 19  2  0
 19 20  1  0
 20 21  2  0
 20 22  1  0
 22 23  1  0
 22 24  1  0
 22 25  1  0
  4 26  1  0
 26 27  2  0
 26 28  1  0
 28 29  2  0
 29 30  1  0
 30 31  2  0
 31 32  1  0
 31 33  1  0
 33 34  2  0
  7  2  1  0
 15 10  1  0
 21 16  1  0
 34 28  1  0
  1 35  1  0
  1 36  1  0
  1 37  1  0
  2 38  1  6
  3 39  1  0
  3 40  1  0
  5 41  1  0
  5 42  1  0
  6 43  1  0
  6 44  1  0
 11 45  1  0
 12 46  1  0
 13 47  1  0
 15 48  1  0
 17 49  1  0
 18 50  1  0
 19 51  1  0
 21 52  1  0
 29 53  1  0
 30 54  1  0
 33 55  1  0
 34 56  1  0
M  END
$$$$
[H]c1nc(-c2c([H])c([H])c(N([H])c3nc([H])c(Cl)c(N([H])c4c([H])c([H])c([H])c([H])c4S(=O)(=O)C([H])(C([H])([H])[H])C([H])([H])[H])n3)c(OC([H])([H])[H])c2[H])c([H])c([H])c1[H]
     RDKit          3D

 59 62  0  0  0  0  0  0  0  0999 V2000
    3.9075    0.8535   -3.1894 C   0  0  0  0  0  0  0  0  0  0  0  0
    3.1209    0.5532   -2.0546 O   0  0  0  0  0  0  0  0  0  0  0  0
    3.7744    0.3178   -0.8455 C   0  0  0  0  0  0  0  0  0  0  0  0
    5.1482    0.3794   -0.7717 C   0  0  0  0  0  0  0  0  0  0  0  0
    5.8188    0.1556    0.3911 C   0  0  0  0  0  0  0  0  0  0  0  0
    5.0624   -0.1378    1.5029 C   0  0  0  0  0  0  0  0  0  0  0  0
    3.6655   -0.2083    1.4629 C   0  0  0  0  0  0  0  0  0  0  0  0
    2.9936    0.0165    0.2948 C   0  0  0  0  0  0  0  0  0  0  0  0
    1.6204   -0.0287    0.1440 N   0  0  0  0  0  0  0  0  0  0  0  0
    0.5947   -0.3001    1.0884 C   0  0  0  0  0  0  0  0  0  0  0  0
    0.7847   -0.5782    2.3777 N   0  0  0  0  0  0  0  0  0  0  0  0
   -0.2380   -0.8204    3.1867 C   0  0  0  0  0  0  0  0  0  0  0  0
   -1.5394   -0.7990    2.7476 C   0  0  0  0  0  0  0  0  0  0  0  0
   -2.8960   -1.1144    3.7945 Cl  0  0  0  0  0  0  0  0  0  0  0  0
   -1.7717   -0.5063    1.3822 C   0  0  0  0  0  0  0  0  0  0  0  0
   -3.1055   -0.4820    0.9247 N   0  0  0  0  0  0  0  0  0  0  0  0
   -3.5199   -0.2157   -0.3789 C   0  0  0  0  0  0  0  0  0  0  0  0
   -2.7179    0.0495   -1.4672 C   0  0  0  0  0  0  0  0  0  0  0  0
   -3.2222    0.3007   -2.7498 C   0  0  0  0  0  0  0  0  0  0  0  0
   -4.5697    0.2909   -2.9730 C   0  0  0  0  0  0  0  0  0  0  0  0
   -5.3771    0.0263   -1.8888 C   0  0  0  0  0  0  0  0  0  0  0  0
   -4.8992   -0.2218   -0.6239 C   0  0  0  0  0  0  0  0  0  0  0  0
   -5.9996   -0.5517    0.6602 S   0  0  0  0  0  0  0  0  0  0  0  0
   -5.9315    0.4242    1.8003 O   0  0  0  0  0  0  0  0  0  0  0  0
   -5.8229   -1.9523    1.1973 O   0  0  0  0  0  0  0  0  0  0  0  0
   -7.6727   -0.4143    0.0256 C   0  0  0  0  0  0  0  0  0  0  0  0
   -8.6505   -0.8959    1.1134 C   0  0  0  0  0  0  0  0  0  0  0  0
   -8.0587    0.9859   -0.2960 C   0  0  0  0  0  0  0  0  0  0  0  0
   -0.6834   -0.2865    0.6906 N   0  0  0  0  0  0  0  0  0  0  0  0
    7.2751    0.2071    0.5269 C   0  0  0  0  0  0  0  0  0  0  0  0
    8.1104    0.4855   -0.5303 C   0  0  0  0  0  0  0  0  0  0  0  0
    9.4946    0.5244   -0.3593 C   0  0  0  0  0  0  0  0  0  0  0  0
   10.0481    0.2835    0.8765 C   0  0  0  0  0  0  0  0  0  0  0  0
    9.1878    0.0071    1.9187 C   0  0  0  0  0  0  0  0  0  0  0  0
    7.8536   -0.0221    1.7157 N   0  0  0  0  0  0  0  0  0  0  0  0
    4.5225    0.0320   -3.5497 H   0  0  0  0  0  0  0  0  0  0  0  0
    4.6096    1.7127   -2.9948 H   0  0  0  0  0  0  0  0  0  0  0  0
    3.2139    1.1647   -3.9989 H   0  0  0  0  0  0  0  0  0  0  0  0
    5.7200    0.6156   -1.6747 H   0  0  0  0  0  0  0  0  0  0  0  0
    5.5574   -0.3203    2.4373 H   0  0  0  0  0  0  0  0  0  0  0  0
    3.1329   -0.4405    2.3595 H   0  0  0  0  0  0  0  0  0  0  0  0
    1.2277    0.1702   -0.8419 H   0  0  0  0  0  0  0  0  0  0  0  0
   -0.0819   -1.0526    4.2636 H   0  0  0  0  0  0  0  0  0  0  0  0
   -3.8269   -0.6877    1.6474 H   0  0  0  0  0  0  0  0  0  0  0  0
   -1.6534    0.0709   -1.3616 H   0  0  0  0  0  0  0  0  0  0  0  0
   -2.5235    0.4993   -3.5437 H   0  0  0  0  0  0  0  0  0  0  0  0
   -5.0085    0.4805   -3.9529 H   0  0  0  0  0  0  0  0  0  0  0  0
   -6.4600    0.0150   -2.0991 H   0  0  0  0  0  0  0  0  0  0  0  0
   -7.8591   -1.0734   -0.8229 H   0  0  0  0  0  0  0  0  0  0  0  0
   -9.6506   -0.8154    0.6572 H   0  0  0  0  0  0  0  0  0  0  0  0
   -8.5115   -0.3070    2.0251 H   0  0  0  0  0  0  0  0  0  0  0  0
   -8.4296   -1.9794    1.2344 H   0  0  0  0  0  0  0  0  0  0  0  0
   -7.1315    1.5936   -0.4016 H   0  0  0  0  0  0  0  0  0  0  0  0
   -8.5697    1.0156   -1.2642 H   0  0  0  0  0  0  0  0  0  0  0  0
   -8.6599    1.4454    0.5182 H   0  0  0  0  0  0  0  0  0  0  0  0
    7.7316    0.6785   -1.5037 H   0  0  0  0  0  0  0  0  0  0  0  0
   10.1709    0.7413   -1.1770 H   0  0  0  0  0  0  0  0  0  0  0  0
   11.1146    0.3049    1.0475 H   0  0  0  0  0  0  0  0  0  0  0  0
    9.5804   -0.1897    2.9142 H   0  0  0  0  0  0  0  0  0  0  0  0
  1  2  1  0
  2  3  1  0
  3  4  2  0
  4  5  1  0
  5  6  2  0
  6  7  1  0
  7  8  2  0
  8  9  1  0
  9 10  1  0
 10 11  2  0
 11 12  1  0
 12 13  2  0
 13 14  1  0
 13 15  1  0
 15 16  1  0
 16 17  1  0
 17 18  2  0
 18 19  1  0
 19 20  2  0
 20 21  1  0
 21 22  2  0
 22 23  1  0
 23 24  2  0
 23 25  2  0
 23 26  1  0
 26 27  1  0
 26 28  1  0
 15 29  2  0
  5 30  1  0
 30 31  2  0
 31 32  1  0
 32 33  2  0
 33 34  1  0
 34 35  2  0
  8  3  1  0
 29 10  1  0
 35 30  1  0
 22 17  1  0
  1 36  1  0
  1 37  1  0
  1 38  1  0
  4 39  1  0
  6 40  1  0
  7 41  1  0
  9 42  1  0
 12 43  1  0
 16 44  1  0
 18 45  1  0
 19 46  1  0
 20 47  1  0
 21 48  1  0
 26 49  1  0
 27 50  1  0
 27 51  1  0
 27 52  1  0
 28 53  1  0
 28 54  1  0
 28 55  1  0
 31 56  1  0
 32 57  1  0
 33 58  1  0
 34 59  1  0
M  END
$$$$
[H]c1nc([H])c([H])c(-c2c([H])c([H])c(N([H])c3nc([H])c(Cl)c(N([H])c4c([H])c([H])c([H])c([H])c4S(=O)(=O)C([H])(C([H])([H])[H])C([H])([H])[H])n3)c(OC([H])([H])[H])c2[H])c1[H]
     RDKit          3D

 59 62  0  0  0  0  0  0  0  0999 V2000
    3.7070   -0.3823   -3.5785 C   0  0  0  0  0  0  0  0  0  0  0  0
    3.0780   -0.2264   -2.3412 O   0  0  0  0  0  0  0  0  0  0  0  0
    3.8043   -0.0311   -1.1850 C   0  0  0  0  0  0  0  0  0  0  0  0
    5.1576    0.0125   -1.2358 C   0  0  0  0  0  0  0  0  0  0  0  0
    5.8985    0.2080   -0.0824 C   0  0  0  0  0  0  0  0  0  0  0  0
    5.2324    0.3533    1.0902 C   0  0  0  0  0  0  0  0  0  0  0  0
    3.8397    0.3093    1.1492 C   0  0  0  0  0  0  0  0  0  0  0  0
    3.1088    0.1169    0.0147 C   0  0  0  0  0  0  0  0  0  0  0  0
    1.7126    0.0557   -0.0298 N   0  0  0  0  0  0  0  0  0  0  0  0
    0.7589    0.1756    1.0001 C   0  0  0  0  0  0  0  0  0  0  0  0
    1.0976    0.3835    2.2672 N   0  0  0  0  0  0  0  0  0  0  0  0
    0.1970    0.4990    3.2594 C   0  0  0  0  0  0  0  0  0  0  0  0
   -1.1368    0.4007    2.9718 C   0  0  0  0  0  0  0  0  0  0  0  0
   -2.2901    0.5542    4.2781 Cl  0  0  0  0  0  0  0  0  0  0  0  0
   -1.5456    0.1796    1.6370 C   0  0  0  0  0  0  0  0  0  0  0  0
   -2.8997    0.0873    1.3921 N   0  0  0  0  0  0  0  0  0  0  0  0
   -3.5502   -0.1293    0.1600 C   0  0  0  0  0  0  0  0  0  0  0  0
   -2.9080   -0.2992   -1.0464 C   0  0  0  0  0  0  0  0  0  0  0  0
   -3.6013   -0.5143   -2.2421 C   0  0  0  0  0  0  0  0  0  0  0  0
   -4.9713   -0.5601   -2.2273 C   0  0  0  0  0  0  0  0  0  0  0  0
   -5.6656   -0.3962   -1.0471 C   0  0  0  0  0  0  0  0  0  0  0  0
   -4.9592   -0.1867    0.1100 C   0  0  0  0  0  0  0  0  0  0  0  0
   -5.8631    0.0187    1.5686 S   0  0  0  0  0  0  0  0  0  0  0  0
   -5.5275   -1.1165    2.5075 O   0  0  0  0  0  0  0  0  0  0  0  0
   -5.6293    1.3455    2.2417 O   0  0  0  0  0  0  0  0  0  0  0  0
   -7.6325   -0.0953    1.3248 C   0  0  0  0  0  0  0  0  0  0  0  0
   -8.1833    1.0274    0.5060 C   0  0  0  0  0  0  0  0  0  0  0  0
   -8.0712   -1.4644    0.9015 C   0  0  0  0  0  0  0  0  0  0  0  0
   -0.5709    0.0836    0.7521 N   0  0  0  0  0  0  0  0  0  0  0  0
    7.3480    0.2435   -0.2122 C   0  0  0  0  0  0  0  0  0  0  0  0
    8.1369   -0.2021    0.8266 C   0  0  0  0  0  0  0  0  0  0  0  0
    9.5181   -0.1528    0.6658 C   0  0  0  0  0  0  0  0  0  0  0  0
   10.0513    0.3178   -0.4742 N   0  0  0  0  0  0  0  0  0  0  0  0
    9.3172    0.7616   -1.5105 C   0  0  0  0  0  0  0  0  0  0  0  0
    7.9306    0.7175   -1.3618 C   0  0  0  0  0  0  0  0  0  0  0  0
    4.4375    0.4409   -3.7835 H   0  0  0  0  0  0  0  0  0  0  0  0
    4.2531   -1.3558   -3.6125 H   0  0  0  0  0  0  0  0  0  0  0  0
    2.9696   -0.3811   -4.4074 H   0  0  0  0  0  0  0  0  0  0  0  0
    5.6686   -0.1058   -2.1821 H   0  0  0  0  0  0  0  0  0  0  0  0
    5.8221    0.5078    2.0007 H   0  0  0  0  0  0  0  0  0  0  0  0
    3.4051    0.4349    2.1299 H   0  0  0  0  0  0  0  0  0  0  0  0
    1.2561   -0.1095   -0.9951 H   0  0  0  0  0  0  0  0  0  0  0  0
    0.5064    0.6700    4.2937 H   0  0  0  0  0  0  0  0  0  0  0  0
   -3.5437    0.1911    2.2357 H   0  0  0  0  0  0  0  0  0  0  0  0
   -1.8324   -0.2768   -1.1415 H   0  0  0  0  0  0  0  0  0  0  0  0
   -3.0946   -0.6471   -3.1858 H   0  0  0  0  0  0  0  0  0  0  0  0
   -5.5174   -0.7269   -3.1525 H   0  0  0  0  0  0  0  0  0  0  0  0
   -6.7408   -0.4451   -1.1220 H   0  0  0  0  0  0  0  0  0  0  0  0
   -8.0526    0.0680    2.3708 H   0  0  0  0  0  0  0  0  0  0  0  0
   -8.9123    1.6484    1.0523 H   0  0  0  0  0  0  0  0  0  0  0  0
   -8.7389    0.6695   -0.4093 H   0  0  0  0  0  0  0  0  0  0  0  0
   -7.3421    1.7047    0.2275 H   0  0  0  0  0  0  0  0  0  0  0  0
   -7.1447   -2.0422    0.6142 H   0  0  0  0  0  0  0  0  0  0  0  0
   -8.7975   -1.4474    0.0636 H   0  0  0  0  0  0  0  0  0  0  0  0
   -8.4607   -2.0059    1.7835 H   0  0  0  0  0  0  0  0  0  0  0  0
    7.6996   -0.5798    1.7421 H   0  0  0  0  0  0  0  0  0  0  0  0
   10.1388   -0.5012    1.4779 H   0  0  0  0  0  0  0  0  0  0  0  0
    9.7964    1.1256   -2.3943 H   0  0  0  0  0  0  0  0  0  0  0  0
    7.3351    1.0694   -2.1828 H   0  0  0  0  0  0  0  0  0  0  0  0
  1  2  1  0
  2  3  1  0
  3  4  2  0
  4  5  1  0
  5  6  2  0
  6  7  1  0
  7  8  2  0
  8  9  1  0
  9 10  1  0
 10 11  2  0
 11 12  1  0
 12 13  2  0
 13 14  1  0
 13 15  1  0
 15 16  1  0
 16 17  1  0
 17 18  2  0
 18 19  1  0
 19 20  2  0
 20 21  1  0
 21 22  2  0
 22 23  1  0
 23 24  2  0
 23 25  2  0
 23 26  1  0
 26 27  1  0
 26 28  1  0
 15 29  2  0
  5 30  1  0
 30 31  2  0
 31 32  1  0
 32 33  2  0
 33 34  1  0
 34 35  2  0
  8  3  1  0
 29 10  1  0
 35 30  1  0
 22 17  1  0
  1 36  1  0
  1 37  1  0
  1 38  1  0
  4 39  1  0
  6 40  1  0
  7 41  1  0
  9 42  1  0
 12 43  1  0
 16 44  1  0
 18 45  1  0
 19 46  1  0
 20 47  1  0
 21 48  1  0
 26 49  1  0
 27 50  1  0
 27 51  1  0
 27 52  1  0
 28 53  1  0
 28 54  1  0
 28 55  1  0
 31 56  1  0
 32 57  1  0
 34 58  1  0
 35 59  1  0
M  END
$$$$
[H]c1nc(C(F)(F)F)nc(N2C([H])([H])C([H])([H])OC([H])([H])[C@@]2([H])C([H])([H])[H])c1C(=O)N([H])c1c([H])c([H])c(Cl)c(Cl)c1[H]
     RDKit          3D

 43 45  0  0  0  0  0  0  0  0999 V2000
   -1.1355    2.8196    0.2150 C   0  0  0  0  0  0  0  0  0  0  0  0
   -2.0749    1.6665    0.2160 C   0  0  2  0  0  0  0  0  0  0  0  0
   -3.2550    2.1847    1.0921 C   0  0  0  0  0  0  0  0  0  0  0  0
   -3.6676    1.2445    1.9813 O   0  0  0  0  0  0  0  0  0  0  0  0
   -2.5565    0.9538    2.8177 C   0  0  0  0  0  0  0  0  0  0  0  0
   -1.7339   -0.0497    1.9896 C   0  0  0  0  0  0  0  0  0  0  0  0
   -1.7199    0.3625    0.5922 N   0  0  0  0  0  0  0  0  0  0  0  0
   -1.4646   -0.6801   -0.3418 C   0  0  0  0  0  0  0  0  0  0  0  0
   -2.5540   -1.5160   -0.6383 N   0  0  0  0  0  0  0  0  0  0  0  0
   -2.4942   -2.4304   -1.6066 C   0  0  0  0  0  0  0  0  0  0  0  0
   -1.3599   -2.5363   -2.3177 N   0  0  0  0  0  0  0  0  0  0  0  0
   -0.2886   -1.7729   -2.0815 C   0  0  0  0  0  0  0  0  0  0  0  0
   -0.3451   -0.8219   -1.0498 C   0  0  0  0  0  0  0  0  0  0  0  0
    0.9413   -0.2933   -0.6269 C   0  0  0  0  0  0  0  0  0  0  0  0
    1.2475    0.6733    0.0178 O   0  0  0  0  0  0  0  0  0  0  0  0
    2.1454   -1.0523   -1.0230 N   0  0  0  0  0  0  0  0  0  0  0  0
    3.4012   -0.5474   -0.6227 C   0  0  0  0  0  0  0  0  0  0  0  0
    3.6120    0.7947   -0.8728 C   0  0  0  0  0  0  0  0  0  0  0  0
    4.7550    1.4265   -0.4497 C   0  0  0  0  0  0  0  0  0  0  0  0
    5.6810    0.6949    0.2230 C   0  0  0  0  0  0  0  0  0  0  0  0
    7.1370    1.5058    0.7646 Cl  0  0  0  0  0  0  0  0  0  0  0  0
    5.5321   -0.6317    0.4966 C   0  0  0  0  0  0  0  0  0  0  0  0
    6.7137   -1.5926    1.3357 Cl  0  0  0  0  0  0  0  0  0  0  0  0
    4.3583   -1.2508    0.0550 C   0  0  0  0  0  0  0  0  0  0  0  0
   -3.5673   -3.4718   -1.7865 C   0  0  0  0  0  0  0  0  0  0  0  0
   -4.7880   -2.9261   -1.7650 F   0  0  0  0  0  0  0  0  0  0  0  0
   -3.4133   -4.4381   -0.7748 F   0  0  0  0  0  0  0  0  0  0  0  0
   -3.3381   -4.1414   -2.9608 F   0  0  0  0  0  0  0  0  0  0  0  0
   -0.9917    3.2234    1.2569 H   0  0  0  0  0  0  0  0  0  0  0  0
   -1.6569    3.6983   -0.3118 H   0  0  0  0  0  0  0  0  0  0  0  0
   -0.2085    2.7327   -0.3564 H   0  0  0  0  0  0  0  0  0  0  0  0
   -2.5311    1.6890   -0.8325 H   0  0  0  0  0  0  0  0  0  0  0  0
   -4.0944    2.5374    0.4839 H   0  0  0  0  0  0  0  0  0  0  0  0
   -2.9061    3.0732    1.7017 H   0  0  0  0  0  0  0  0  0  0  0  0
   -1.9040    1.8074    2.9470 H   0  0  0  0  0  0  0  0  0  0  0  0
   -2.8745    0.4502    3.7273 H   0  0  0  0  0  0  0  0  0  0  0  0
   -0.7953   -0.2117    2.4705 H   0  0  0  0  0  0  0  0  0  0  0  0
   -2.3461   -1.0033    2.0971 H   0  0  0  0  0  0  0  0  0  0  0  0
    0.6061   -1.8361   -2.6895 H   0  0  0  0  0  0  0  0  0  0  0  0
    2.0361   -1.9046   -1.5309 H   0  0  0  0  0  0  0  0  0  0  0  0
    2.8817    1.3758   -1.4033 H   0  0  0  0  0  0  0  0  0  0  0  0
    4.8216    2.4953   -0.6715 H   0  0  0  0  0  0  0  0  0  0  0  0
    4.1951   -2.3011    0.2328 H   0  0  0  0  0  0  0  0  0  0  0  0
  1  2  1  0
  2  3  1  0
  3  4  1  0
  4  5  1  0
  5  6  1  0
  6  7  1  0
  7  8  1  0
  8  9  2  0
  9 10  1  0
 10 11  2  0
 11 12  1  0
 12 13  2  0
 13 14  1  0
 14 15  2  0
 14 16  1  0
 16 17  1  0
 17 18  2  0
 18 19  1  0
 19 20  2  0
 20 21  1  0
 20 22  1  0
 22 23  1  0
 22 24  2  0
 10 25  1  0
 25 26  1  0
 25 27  1  0
 25 28  1  0
  7  2  1  0
 13  8  1  0
 24 17  1  0
  1 29  1  0
  1 30  1  0
  1 31  1  0
  2 32  1  6
  3 33  1  0
  3 34  1  0
  5 35  1  0
  5 36  1  0
  6 37  1  0
  6 38  1  0
 12 39  1  0
 16 40  1  0
 18 41  1  0
 19 42  1  0
 24 43  1  0
M  END
$$$$
[H]N=C(N([H])[H])N([H])C([H])([H])C([H])([H])C([H])([H])[C@@]([H])(C(=O)N([H])[C@]([H])(C(=O)N([H])[H])C([H])([H])c1c([H])c([H])c([H])c([H])c1[H])N([H])C(=O)[C@@]([H])(N([H])C(=O)[C@@]([H])(N([H])C(=O)[C@@]([H])(N([H])C(=O)OC([H])([H])c1c([H])c([H])c([H])c([H])c1[H])C([H])([H])C([H])(C([H])([H])[H])C([H])([H])[H])C([H])([H])c1c([H])c([H])c([H])c([H])c1[H])C([H])([H])C([H])([H])C([H])([H])N([H])C(=N[H])N([H])[H]
     RDKit          3D

125127  0  0  0  0  0  0  0  0999 V2000
    7.3918   -1.1385    2.6657 C   0  0  0  0  0  0  0  0  0  0  0  0
    5.9497   -0.8873    2.9436 C   0  0  0  0  0  0  0  0  0  0  0  0
    5.6584    0.3262    3.7825 C   0  0  0  0  0  0  0  0  0  0  0  0
    5.0770   -1.0306    1.7220 C   0  0  0  0  0  0  0  0  0  0  0  0
    5.3869   -0.1489    0.5852 C   0  0  2  0  0  0  0  0  0  0  0  0
    5.3101    1.2655    0.7939 N   0  0  0  0  0  0  0  0  0  0  0  0
    6.2338    2.2350    0.3505 C   0  0  0  0  0  0  0  0  0  0  0  0
    7.2744    1.9233   -0.3134 O   0  0  0  0  0  0  0  0  0  0  0  0
    6.0259    3.5647    0.6325 O   0  0  0  0  0  0  0  0  0  0  0  0
    6.8227    4.6418    0.2774 C   0  0  0  0  0  0  0  0  0  0  0  0
    8.1768    4.5078    0.8700 C   0  0  0  0  0  0  0  0  0  0  0  0
    9.2616    5.2050    0.3266 C   0  0  0  0  0  0  0  0  0  0  0  0
   10.4859    5.0806    0.8834 C   0  0  0  0  0  0  0  0  0  0  0  0
   10.7327    4.2843    1.9881 C   0  0  0  0  0  0  0  0  0  0  0  0
    9.6560    3.5967    2.5223 C   0  0  0  0  0  0  0  0  0  0  0  0
    8.3958    3.7093    1.9684 C   0  0  0  0  0  0  0  0  0  0  0  0
    4.5137   -0.4943   -0.5824 C   0  0  0  0  0  0  0  0  0  0  0  0
    4.5585    0.2469   -1.6283 O   0  0  0  0  0  0  0  0  0  0  0  0
    3.6407   -1.5844   -0.6099 N   0  0  0  0  0  0  0  0  0  0  0  0
    2.7950   -1.9999   -1.6984 C   0  0  1  0  0  0  0  0  0  0  0  0
    2.4630   -3.4251   -1.7014 C   0  0  0  0  0  0  0  0  0  0  0  0
    3.6399   -4.3354   -1.7981 C   0  0  0  0  0  0  0  0  0  0  0  0
    4.1654   -4.7125   -3.0132 C   0  0  0  0  0  0  0  0  0  0  0  0
    5.2581   -5.5597   -3.0094 C   0  0  0  0  0  0  0  0  0  0  0  0
    5.8102   -6.0184   -1.8259 C   0  0  0  0  0  0  0  0  0  0  0  0
    5.2981   -5.6527   -0.6166 C   0  0  0  0  0  0  0  0  0  0  0  0
    4.1878   -4.7915   -0.6253 C   0  0  0  0  0  0  0  0  0  0  0  0
    1.5647   -1.1722   -1.6995 C   0  0  0  0  0  0  0  0  0  0  0  0
    1.6766    0.0674   -1.5738 O   0  0  0  0  0  0  0  0  0  0  0  0
    0.2913   -1.7440   -1.8362 N   0  0  0  0  0  0  0  0  0  0  0  0
   -0.9273   -0.9809   -1.8799 C   0  0  1  0  0  0  0  0  0  0  0  0
   -2.0295   -1.5487   -2.6735 C   0  0  0  0  0  0  0  0  0  0  0  0
   -1.7024   -1.7499   -4.1398 C   0  0  0  0  0  0  0  0  0  0  0  0
   -1.3045   -0.4784   -4.8439 C   0  0  0  0  0  0  0  0  0  0  0  0
   -1.0436   -0.8159   -6.2324 N   0  0  0  0  0  0  0  0  0  0  0  0
   -2.0690   -1.2089   -7.1279 C   0  0  0  0  0  0  0  0  0  0  0  0
   -2.8793   -0.1983   -7.7061 N   0  0  0  0  0  0  0  0  0  0  0  0
   -2.2397   -2.4512   -7.3986 N   0  0  0  0  0  0  0  0  0  0  0  0
   -1.3643   -0.4771   -0.5459 C   0  0  0  0  0  0  0  0  0  0  0  0
   -0.6591   -0.6963    0.4714 O   0  0  0  0  0  0  0  0  0  0  0  0
   -2.5553    0.2470   -0.4137 N   0  0  0  0  0  0  0  0  0  0  0  0
   -3.1080    0.8278    0.7700 C   0  0  1  0  0  0  0  0  0  0  0  0
   -3.5018    2.2531    0.6101 C   0  0  0  0  0  0  0  0  0  0  0  0
   -4.5103    2.4846   -0.4711 C   0  0  0  0  0  0  0  0  0  0  0  0
   -4.8070    3.9853   -0.5030 C   0  0  0  0  0  0  0  0  0  0  0  0
   -5.7246    4.3631   -1.5255 N   0  0  0  0  0  0  0  0  0  0  0  0
   -7.0699    3.9637   -1.4785 C   0  0  0  0  0  0  0  0  0  0  0  0
   -7.4737    2.7739   -2.1822 N   0  0  0  0  0  0  0  0  0  0  0  0
   -7.9443    4.6331   -0.8303 N   0  0  0  0  0  0  0  0  0  0  0  0
   -4.1690    0.0240    1.3596 C   0  0  0  0  0  0  0  0  0  0  0  0
   -4.0197   -1.2518    1.3503 O   0  0  0  0  0  0  0  0  0  0  0  0
   -5.3470    0.5405    1.9441 N   0  0  0  0  0  0  0  0  0  0  0  0
   -6.3296   -0.3900    2.5511 C   0  0  1  0  0  0  0  0  0  0  0  0
   -6.8502    0.2904    3.7582 C   0  0  0  0  0  0  0  0  0  0  0  0
   -7.8193   -0.4148    4.5838 C   0  0  0  0  0  0  0  0  0  0  0  0
   -9.1731   -0.1967    4.3994 C   0  0  0  0  0  0  0  0  0  0  0  0
  -10.0999   -0.8463    5.1584 C   0  0  0  0  0  0  0  0  0  0  0  0
   -9.6878   -1.7370    6.1286 C   0  0  0  0  0  0  0  0  0  0  0  0
   -8.3457   -1.9516    6.3098 C   0  0  0  0  0  0  0  0  0  0  0  0
   -7.4085   -1.3154    5.5650 C   0  0  0  0  0  0  0  0  0  0  0  0
   -7.3281   -0.7174    1.5059 C   0  0  0  0  0  0  0  0  0  0  0  0
   -8.4132   -1.6084    1.7321 N   0  0  0  0  0  0  0  0  0  0  0  0
   -7.2366   -0.2069    0.3730 O   0  0  0  0  0  0  0  0  0  0  0  0
    8.0229   -0.2305    2.7381 H   0  0  0  0  0  0  0  0  0  0  0  0
    7.4795   -1.6073    1.6556 H   0  0  0  0  0  0  0  0  0  0  0  0
    7.7916   -1.8369    3.4242 H   0  0  0  0  0  0  0  0  0  0  0  0
    5.6133   -1.7595    3.6075 H   0  0  0  0  0  0  0  0  0  0  0  0
    6.2870    0.2025    4.7084 H   0  0  0  0  0  0  0  0  0  0  0  0
    5.8563    1.2851    3.3141 H   0  0  0  0  0  0  0  0  0  0  0  0
    4.6015    0.2172    4.1582 H   0  0  0  0  0  0  0  0  0  0  0  0
    4.0273   -0.9383    2.0505 H   0  0  0  0  0  0  0  0  0  0  0  0
    5.2043   -2.1034    1.3946 H   0  0  0  0  0  0  0  0  0  0  0  0
    6.4403   -0.3183    0.1820 H   0  0  0  0  0  0  0  0  0  0  0  0
    4.4732    1.6148    1.3431 H   0  0  0  0  0  0  0  0  0  0  0  0
    6.3872    5.6043    0.6761 H   0  0  0  0  0  0  0  0  0  0  0  0
    6.8819    4.7873   -0.8344 H   0  0  0  0  0  0  0  0  0  0  0  0
    9.0427    5.8200   -0.5410 H   0  0  0  0  0  0  0  0  0  0  0  0
   11.3335    5.6201    0.4616 H   0  0  0  0  0  0  0  0  0  0  0  0
   11.7369    4.2219    2.3926 H   0  0  0  0  0  0  0  0  0  0  0  0
    9.8150    2.9609    3.3886 H   0  0  0  0  0  0  0  0  0  0  0  0
    7.5659    3.1476    2.4324 H   0  0  0  0  0  0  0  0  0  0  0  0
    3.5696   -2.1845    0.2688 H   0  0  0  0  0  0  0  0  0  0  0  0
    3.4046   -1.6866   -2.6212 H   0  0  0  0  0  0  0  0  0  0  0  0
    1.8792   -3.7223   -0.8200 H   0  0  0  0  0  0  0  0  0  0  0  0
    1.8257   -3.7246   -2.5924 H   0  0  0  0  0  0  0  0  0  0  0  0
    3.7511   -4.3674   -3.9404 H   0  0  0  0  0  0  0  0  0  0  0  0
    5.6763   -5.8586   -3.9728 H   0  0  0  0  0  0  0  0  0  0  0  0
    6.6728   -6.6868   -1.8269 H   0  0  0  0  0  0  0  0  0  0  0  0
    5.7342   -6.0160    0.3128 H   0  0  0  0  0  0  0  0  0  0  0  0
    3.8193   -4.5363    0.3547 H   0  0  0  0  0  0  0  0  0  0  0  0
    0.2009   -2.7777   -1.9009 H   0  0  0  0  0  0  0  0  0  0  0  0
   -0.6030    0.0002   -2.3917 H   0  0  0  0  0  0  0  0  0  0  0  0
   -2.3162   -2.5855   -2.3108 H   0  0  0  0  0  0  0  0  0  0  0  0
   -2.9765   -0.9929   -2.6544 H   0  0  0  0  0  0  0  0  0  0  0  0
   -2.6268   -2.1235   -4.6390 H   0  0  0  0  0  0  0  0  0  0  0  0
   -0.9489   -2.5402   -4.3074 H   0  0  0  0  0  0  0  0  0  0  0  0
   -2.0785    0.3043   -4.7675 H   0  0  0  0  0  0  0  0  0  0  0  0
   -0.3886   -0.0286   -4.3778 H   0  0  0  0  0  0  0  0  0  0  0  0
   -0.0689   -0.7625   -6.5766 H   0  0  0  0  0  0  0  0  0  0  0  0
   -2.6196    0.3728   -8.5374 H   0  0  0  0  0  0  0  0  0  0  0  0
   -3.8021   -0.0151   -7.2644 H   0  0  0  0  0  0  0  0  0  0  0  0
   -1.6784   -3.2210   -7.0090 H   0  0  0  0  0  0  0  0  0  0  0  0
   -3.1369    0.3987   -1.2942 H   0  0  0  0  0  0  0  0  0  0  0  0
   -2.2461    0.8057    1.5317 H   0  0  0  0  0  0  0  0  0  0  0  0
   -2.6259    2.9212    0.3840 H   0  0  0  0  0  0  0  0  0  0  0  0
   -3.8740    2.6215    1.6085 H   0  0  0  0  0  0  0  0  0  0  0  0
   -5.4269    1.9018   -0.4008 H   0  0  0  0  0  0  0  0  0  0  0  0
   -4.0050    2.2226   -1.4426 H   0  0  0  0  0  0  0  0  0  0  0  0
   -5.1878    4.2640    0.5114 H   0  0  0  0  0  0  0  0  0  0  0  0
   -3.8112    4.4647   -0.5926 H   0  0  0  0  0  0  0  0  0  0  0  0
   -5.3463    4.9579   -2.3227 H   0  0  0  0  0  0  0  0  0  0  0  0
   -6.8055    2.0051   -2.3597 H   0  0  0  0  0  0  0  0  0  0  0  0
   -8.4659    2.7254   -2.4986 H   0  0  0  0  0  0  0  0  0  0  0  0
   -8.9242    4.3101   -0.8169 H   0  0  0  0  0  0  0  0  0  0  0  0
   -5.5503    1.5553    1.9664 H   0  0  0  0  0  0  0  0  0  0  0  0
   -5.7813   -1.3427    2.7329 H   0  0  0  0  0  0  0  0  0  0  0  0
   -7.3160    1.2893    3.5065 H   0  0  0  0  0  0  0  0  0  0  0  0
   -5.9989    0.5809    4.4454 H   0  0  0  0  0  0  0  0  0  0  0  0
   -9.4920    0.5050    3.6279 H   0  0  0  0  0  0  0  0  0  0  0  0
  -11.1463   -0.6373    4.9703 H   0  0  0  0  0  0  0  0  0  0  0  0
  -10.4316   -2.2394    6.7156 H   0  0  0  0  0  0  0  0  0  0  0  0
   -8.0000   -2.6432    7.0667 H   0  0  0  0  0  0  0  0  0  0  0  0
   -6.3467   -1.4381    5.6611 H   0  0  0  0  0  0  0  0  0  0  0  0
   -8.2833   -2.4674    2.2870 H   0  0  0  0  0  0  0  0  0  0  0  0
   -9.3455   -1.3994    1.3361 H   0  0  0  0  0  0  0  0  0  0  0  0
  1  2  1  0
  2  3  1  0
  2  4  1  0
  4  5  1  0
  5  6  1  0
  6  7  1  0
  7  8  2  0
  7  9  1  0
  9 10  1  0
 10 11  1  0
 11 12  2  0
 12 13  1  0
 13 14  2  0
 14 15  1  0
 15 16  2  0
  5 17  1  0
 17 18  2  0
 17 19  1  0
 19 20  1  0
 20 21  1  0
 21 22  1  0
 22 23  2  0
 23 24  1  0
 24 25  2  0
 25 26  1  0
 26 27  2  0
 20 28  1  0
 28 29  2  0
 28 30  1  0
 30 31  1  0
 31 32  1  0
 32 33  1  0
 33 34  1  0
 34 35  1  0
 35 36  1  0
 36 37  1  0
 36 38  2  3
 31 39  1  0
 39 40  2  0
 39 41  1  0
 41 42  1  0
 42 43  1  0
 43 44  1  0
 44 45  1  0
 45 46  1  0
 46 47  1  0
 47 48  1  0
 47 49  2  3
 42 50  1  0
 50 51  2  0
 50 52  1  0
 52 53  1  0
 53 54  1  0
 54 55  1  0
 55 56  2  0
 56 57  1  0
 57 58  2  0
 58 59  1  0
 59 60  2  0
 53 61  1  0
 61 62  1  0
 61 63  2  0
 16 11  1  0
 27 22  1  0
 60 55  1  0
  1 64  1  0
  1 65  1  0
  1 66  1  0
  2 67  1  0
  3 68  1  0
  3 69  1  0
  3 70  1  0
  4 71  1  0
  4 72  1  0
  5 73  1  6
  6 74  1  0
 10 75  1  0
 10 76  1  0
 12 77  1  0
 13 78  1  0
 14 79  1  0
 15 80  1  0
 16 81  1  0
 19 82  1  0
 20 83  1  6
 21 84  1  0
 21 85  1  0
 23 86  1  0
 24 87  1  0
 25 88  1  0
 26 89  1  0
 27 90  1  0
 30 91  1  0
 31 92  1  6
 32 93  1  0
 32 94  1  0
 33 95  1  0
 33 96  1  0
 34 97  1  0
 34 98  1  0
 35 99  1  0
 37100  1  0
 37101  1  0
 38102  1  0
 41103  1  0
 42104  1  1
 43105  1  0
 43106  1  0
 44107  1  0
 44108  1  0
 45109  1  0
 45110  1  0
 46111  1  0
 48112  1  0
 48113  1  0
 49114  1  0
 52115  1  0
 53116  1  1
 54117  1  0
 54118  1  0
 56119  1  0
 57120  1  0
 58121  1  0
 59122  1  0
 60123  1  0
 62124  1  0
 62125  1  0
M  END
$$$$
[H]O[C@]1([H])C([H])([H])C([H])([H])[C@]([H])(N([H])c2nc(N([H])c3c([H])c([H])c(C#N)c([H])c3[H])nc([H])c2Br)C([H])([H])C1([H])[H]
     RDKit          3D

 42 44  0  0  0  0  0  0  0  0999 V2000
   -4.4534   -1.6997    0.9786 O   0  0  0  0  0  0  0  0  0  0  0  0
   -4.8615   -0.7505    0.0150 C   0  0  2  0  0  0  0  0  0  0  0  0
   -3.8650   -0.7556   -1.0975 C   0  0  0  0  0  0  0  0  0  0  0  0
   -2.5396   -0.2778   -0.5527 C   0  0  0  0  0  0  0  0  0  0  0  0
   -2.6385    1.1106    0.0344 C   0  0  1  0  0  0  0  0  0  0  0  0
   -4.0362    1.6143    0.1482 C   0  0  0  0  0  0  0  0  0  0  0  0
   -5.0117    0.5879    0.6642 C   0  0  0  0  0  0  0  0  0  0  0  0
   -1.9224    1.1998    1.3161 N   0  0  0  0  0  0  0  0  0  0  0  0
   -0.5302    0.9270    1.3382 C   0  0  0  0  0  0  0  0  0  0  0  0
    0.1570    0.5905    0.2313 N   0  0  0  0  0  0  0  0  0  0  0  0
    1.5101    0.3360    0.3108 C   0  0  0  0  0  0  0  0  0  0  0  0
    2.2058    0.0095   -0.8747 N   0  0  0  0  0  0  0  0  0  0  0  0
    3.5617   -0.2978   -1.0098 C   0  0  0  0  0  0  0  0  0  0  0  0
    4.1556   -0.1007   -2.2475 C   0  0  0  0  0  0  0  0  0  0  0  0
    5.4775   -0.4133   -2.4360 C   0  0  0  0  0  0  0  0  0  0  0  0
    6.2661   -0.9256   -1.4347 C   0  0  0  0  0  0  0  0  0  0  0  0
    5.6701   -1.1176   -0.2137 C   0  0  0  0  0  0  0  0  0  0  0  0
    4.3225   -0.8034   -0.0078 C   0  0  0  0  0  0  0  0  0  0  0  0
    7.6647   -1.2488   -1.6580 C   0  0  0  0  0  0  0  0  0  0  0  0
    8.7789   -1.5022   -1.8548 N   0  0  0  0  0  0  0  0  0  0  0  0
    2.1214    0.4277    1.4912 N   0  0  0  0  0  0  0  0  0  0  0  0
    1.5064    0.7571    2.6385 C   0  0  0  0  0  0  0  0  0  0  0  0
    0.1386    1.0104    2.5360 C   0  0  0  0  0  0  0  0  0  0  0  0
   -0.8497    1.4874    4.0892 Br  0  0  0  0  0  0  0  0  0  0  0  0
   -4.4770   -1.2966    1.9010 H   0  0  0  0  0  0  0  0  0  0  0  0
   -5.8646   -1.1295   -0.3379 H   0  0  0  0  0  0  0  0  0  0  0  0
   -3.7165   -1.7982   -1.4451 H   0  0  0  0  0  0  0  0  0  0  0  0
   -4.1910   -0.1383   -1.9467 H   0  0  0  0  0  0  0  0  0  0  0  0
   -2.1762   -1.0007    0.2050 H   0  0  0  0  0  0  0  0  0  0  0  0
   -1.8138   -0.3351   -1.3967 H   0  0  0  0  0  0  0  0  0  0  0  0
   -2.1052    1.7881   -0.6966 H   0  0  0  0  0  0  0  0  0  0  0  0
   -4.0499    2.4624    0.8734 H   0  0  0  0  0  0  0  0  0  0  0  0
   -4.3924    2.0537   -0.8195 H   0  0  0  0  0  0  0  0  0  0  0  0
   -4.9808    0.5215    1.7704 H   0  0  0  0  0  0  0  0  0  0  0  0
   -6.0391    0.9896    0.4195 H   0  0  0  0  0  0  0  0  0  0  0  0
   -2.4330    1.4566    2.1760 H   0  0  0  0  0  0  0  0  0  0  0  0
    1.6190   -0.0109   -1.7977 H   0  0  0  0  0  0  0  0  0  0  0  0
    3.5791    0.3038   -3.0821 H   0  0  0  0  0  0  0  0  0  0  0  0
    5.9626   -0.2644   -3.4058 H   0  0  0  0  0  0  0  0  0  0  0  0
    6.2699   -1.5181    0.5849 H   0  0  0  0  0  0  0  0  0  0  0  0
    3.9653   -1.0192    1.0011 H   0  0  0  0  0  0  0  0  0  0  0  0
    2.0151    0.8282    3.5922 H   0  0  0  0  0  0  0  0  0  0  0  0
  1  2  1  0
  2  3  1  0
  3  4  1  0
  4  5  1  0
  5  6  1  0
  6  7  1  0
  5  8  1  0
  8  9  1  0
  9 10  2  0
 10 11  1  0
 11 12  1  0
 12 13  1  0
 13 14  2  0
 14 15  1  0
 15 16  2  0
 16 17  1  0
 17 18  2  0
 16 19  1  0
 19 20  3  0
 11 21  2  0
 21 22  1  0
 22 23  2  0
 23 24  1  0
  7  2  1  0
 23  9  1  0
 18 13  1  0
  1 25  1  0
  2 26  1  6
  3 27  1  0
  3 28  1  0
  4 29  1  0
  4 30  1  0
  5 31  1  6
  6 32  1  0
  6 33  1  0
  7 34  1  0
  7 35  1  0
  8 36  1  0
 12 37  1  0
 14 38  1  0
 15 39  1  0
 17 40  1  0
 18 41  1  0
 22 42  1  0
M  END
$$$$
[H]c1nc(N([H])c2c([H])c([H])c(N3C([H])([H])C([H])([H])N(C([H])([H])[H])C([H])([H])C3([H])[H])c([H])c2OC([H])([H])[H])nc(N([H])c2c([H])c([H])c([H])c([H])c2S(=O)(=O)C(C([H])([H])[H])(C([H])([H])[H])C([H])([H])[H])c1Cl
     RDKit          3D

 70 73  0  0  0  0  0  0  0  0999 V2000
    3.0951    3.7743   -0.5799 C   0  0  0  0  0  0  0  0  0  0  0  0
    2.3241    2.6075   -0.4260 O   0  0  0  0  0  0  0  0  0  0  0  0
    3.0066    1.3776   -0.3211 C   0  0  0  0  0  0  0  0  0  0  0  0
    4.3818    1.3415   -0.3707 C   0  0  0  0  0  0  0  0  0  0  0  0
    5.1026    0.1740   -0.2736 C   0  0  0  0  0  0  0  0  0  0  0  0
    4.3643   -0.9818   -0.1214 C   0  0  0  0  0  0  0  0  0  0  0  0
    2.9700   -0.9781   -0.0677 C   0  0  0  0  0  0  0  0  0  0  0  0
    2.2852    0.1878   -0.1657 C   0  0  0  0  0  0  0  0  0  0  0  0
    0.8908    0.3082   -0.1261 N   0  0  0  0  0  0  0  0  0  0  0  0
   -0.0859   -0.7078    0.0393 C   0  0  0  0  0  0  0  0  0  0  0  0
    0.2019   -2.0026    0.1901 N   0  0  0  0  0  0  0  0  0  0  0  0
   -0.7208   -2.9543    0.3459 C   0  0  0  0  0  0  0  0  0  0  0  0
   -2.0565   -2.6228    0.3571 C   0  0  0  0  0  0  0  0  0  0  0  0
   -3.3164   -3.8052    0.5546 Cl  0  0  0  0  0  0  0  0  0  0  0  0
   -2.4174   -1.2640    0.2013 C   0  0  0  0  0  0  0  0  0  0  0  0
   -3.7753   -0.9689    0.2200 N   0  0  0  0  0  0  0  0  0  0  0  0
   -4.3693    0.3027    0.0834 C   0  0  0  0  0  0  0  0  0  0  0  0
   -3.6956    1.4795   -0.1272 C   0  0  0  0  0  0  0  0  0  0  0  0
   -4.3461    2.7045   -0.2612 C   0  0  0  0  0  0  0  0  0  0  0  0
   -5.7039    2.7947   -0.1892 C   0  0  0  0  0  0  0  0  0  0  0  0
   -6.3896    1.6184    0.0219 C   0  0  0  0  0  0  0  0  0  0  0  0
   -5.7858    0.4038    0.1580 C   0  0  0  0  0  0  0  0  0  0  0  0
   -6.7168   -1.0294    0.4095 S   0  0  0  0  0  0  0  0  0  0  0  0
   -6.3550   -1.6788    1.7331 O   0  0  0  0  0  0  0  0  0  0  0  0
   -6.5512   -1.9623   -0.7523 O   0  0  0  0  0  0  0  0  0  0  0  0
   -8.4768   -0.7176    0.5334 C   0  0  0  0  0  0  0  0  0  0  0  0
   -8.7789    0.1659    1.6903 C   0  0  0  0  0  0  0  0  0  0  0  0
   -9.0513   -0.2425   -0.7804 C   0  0  0  0  0  0  0  0  0  0  0  0
   -9.1023   -2.0939    0.8096 C   0  0  0  0  0  0  0  0  0  0  0  0
   -1.4010   -0.4096    0.0539 N   0  0  0  0  0  0  0  0  0  0  0  0
    6.5160    0.1245   -0.3141 N   0  0  0  0  0  0  0  0  0  0  0  0
    7.1725   -1.1378   -0.3602 C   0  0  0  0  0  0  0  0  0  0  0  0
    8.6466   -1.1147   -0.5249 C   0  0  0  0  0  0  0  0  0  0  0  0
    9.3400   -0.0003   -0.0165 N   0  0  0  0  0  0  0  0  0  0  0  0
   10.6099    0.2675   -0.6033 C   0  0  0  0  0  0  0  0  0  0  0  0
    8.5965    1.1259    0.3889 C   0  0  0  0  0  0  0  0  0  0  0  0
    7.2759    1.3397   -0.3023 C   0  0  0  0  0  0  0  0  0  0  0  0
    3.8139    3.8162    0.2744 H   0  0  0  0  0  0  0  0  0  0  0  0
    2.4754    4.6762   -0.6620 H   0  0  0  0  0  0  0  0  0  0  0  0
    3.7307    3.6244   -1.4956 H   0  0  0  0  0  0  0  0  0  0  0  0
    4.9141    2.2838   -0.4961 H   0  0  0  0  0  0  0  0  0  0  0  0
    4.9008   -1.9086   -0.0428 H   0  0  0  0  0  0  0  0  0  0  0  0
    2.5220   -1.9453    0.0511 H   0  0  0  0  0  0  0  0  0  0  0  0
    0.4407    1.2910   -0.2314 H   0  0  0  0  0  0  0  0  0  0  0  0
   -0.4513   -4.0090    0.4669 H   0  0  0  0  0  0  0  0  0  0  0  0
   -4.4397   -1.7729    0.3453 H   0  0  0  0  0  0  0  0  0  0  0  0
   -2.6020    1.4780   -0.1975 H   0  0  0  0  0  0  0  0  0  0  0  0
   -3.7523    3.6039   -0.4274 H   0  0  0  0  0  0  0  0  0  0  0  0
   -6.2396    3.7501   -0.2924 H   0  0  0  0  0  0  0  0  0  0  0  0
   -7.4911    1.7342    0.0662 H   0  0  0  0  0  0  0  0  0  0  0  0
   -9.4447   -0.3869    2.4019 H   0  0  0  0  0  0  0  0  0  0  0  0
   -7.8752    0.5265    2.2389 H   0  0  0  0  0  0  0  0  0  0  0  0
   -9.3638    1.0643    1.3750 H   0  0  0  0  0  0  0  0  0  0  0  0
   -8.2083   -0.0456   -1.4813 H   0  0  0  0  0  0  0  0  0  0  0  0
   -9.6346    0.6977   -0.6229 H   0  0  0  0  0  0  0  0  0  0  0  0
   -9.6656   -1.0255   -1.2674 H   0  0  0  0  0  0  0  0  0  0  0  0
   -8.5510   -2.4988    1.6812 H   0  0  0  0  0  0  0  0  0  0  0  0
  -10.1921   -2.0127    0.9811 H   0  0  0  0  0  0  0  0  0  0  0  0
   -8.8467   -2.7503   -0.0517 H   0  0  0  0  0  0  0  0  0  0  0  0
    6.9551   -1.6492    0.6259 H   0  0  0  0  0  0  0  0  0  0  0  0
    6.6604   -1.7981   -1.1106 H   0  0  0  0  0  0  0  0  0  0  0  0
    8.8738   -1.2181   -1.6277 H   0  0  0  0  0  0  0  0  0  0  0  0
    9.1132   -2.0395   -0.0808 H   0  0  0  0  0  0  0  0  0  0  0  0
   11.2665    0.6975    0.1965 H   0  0  0  0  0  0  0  0  0  0  0  0
   10.5747    0.8994   -1.5103 H   0  0  0  0  0  0  0  0  0  0  0  0
   11.0812   -0.6908   -0.9036 H   0  0  0  0  0  0  0  0  0  0  0  0
    9.2131    2.0451    0.1629 H   0  0  0  0  0  0  0  0  0  0  0  0
    8.4448    1.1530    1.4882 H   0  0  0  0  0  0  0  0  0  0  0  0
    6.7267    2.0853    0.3446 H   0  0  0  0  0  0  0  0  0  0  0  0
    7.3665    1.7986   -1.3053 H   0  0  0  0  0  0  0  0  0  0  0  0
  1  2  1  0
  2  3  1  0
  3  4  2  0
  4  5  1  0
  5  6  2  0
  6  7  1  0
  7  8  2  0
  8  9  1  0
  9 10  1  0
 10 11  2  0
 11 12  1  0
 12 13  2  0
 13 14  1  0
 13 15  1  0
 15 16  1  0
 16 17  1  0
 17 18  2  0
 18 19  1  0
 19 20  2  0
 20 21  1  0
 21 22  2  0
 22 23  1  0
 23 24  2  0
 23 25  2  0
 23 26  1  0
 26 27  1  0
 26 28  1  0
 26 29  1  0
 15 30  2  0
  5 31  1  0
 31 32  1  0
 32 33  1  0
 33 34  1  0
 34 35  1  0
 34 36  1  0
 36 37  1  0
  8  3  1  0
 30 10  1  0
 37 31  1  0
 22 17  1  0
  1 38  1  0
  1 39  1  0
  1 40  1  0
  4 41  1  0
  6 42  1  0
  7 43  1  0
  9 44  1  0
 12 45  1  0
 16 46  1  0
 18 47  1  0
 19 48  1  0
 20 49  1  0
 21 50  1  0
 27 51  1  0
 27 52  1  0
 27 53  1  0
 28 54  1  0
 28 55  1  0
 28 56  1  0
 29 57  1  0
 29 58  1  0
 29 59  1  0
 32 60  1  0
 32 61  1  0
 33 62  1  0
 33 63  1  0
 35 64  1  0
 35 65  1  0
 35 66  1  0
 36 67  1  0
 36 68  1  0
 37 69  1  0
 37 70  1  0
M  END
$$$$
[H]c1c([H])c([C@@]2([H])C([H])([H])N(C(=O)c3c([H])c([H])c(Cl)c([H])c3[H])C([H])([H])[C@@]2([H])C([H])([H])[H])c([H])c([H])c1F
     RDKit          3D

 39 41  0  0  0  0  0  0  0  0999 V2000
   -1.4104   -2.1514   -0.8057 C   0  0  0  0  0  0  0  0  0  0  0  0
   -0.9897   -0.7604   -1.1756 C   0  0  2  0  0  0  0  0  0  0  0  0
    0.5383   -0.6878   -0.9898 C   0  0  0  0  0  0  0  0  0  0  0  0
    0.7765   -0.0695    0.2676 N   0  0  0  0  0  0  0  0  0  0  0  0
   -0.5236   -0.0038    0.9479 C   0  0  0  0  0  0  0  0  0  0  0  0
   -1.4035    0.3134   -0.2341 C   0  0  2  0  0  0  0  0  0  0  0  0
   -2.8174    0.3960    0.0840 C   0  0  0  0  0  0  0  0  0  0  0  0
   -3.5888    1.4365   -0.3797 C   0  0  0  0  0  0  0  0  0  0  0  0
   -4.9443    1.5392   -0.0771 C   0  0  0  0  0  0  0  0  0  0  0  0
   -5.5615    0.5905    0.7051 C   0  0  0  0  0  0  0  0  0  0  0  0
   -6.9028    0.6853    1.0089 F   0  0  0  0  0  0  0  0  0  0  0  0
   -4.7997   -0.4532    1.1736 C   0  0  0  0  0  0  0  0  0  0  0  0
   -3.4404   -0.5431    0.8619 C   0  0  0  0  0  0  0  0  0  0  0  0
    1.9386    0.4149    0.8872 C   0  0  0  0  0  0  0  0  0  0  0  0
    1.8033    0.9564    2.0724 O   0  0  0  0  0  0  0  0  0  0  0  0
    3.3022    0.4059    0.3999 C   0  0  0  0  0  0  0  0  0  0  0  0
    3.7413   -0.1451   -0.7763 C   0  0  0  0  0  0  0  0  0  0  0  0
    5.0866   -0.0929   -1.1762 C   0  0  0  0  0  0  0  0  0  0  0  0
    6.0308    0.5152   -0.4040 C   0  0  0  0  0  0  0  0  0  0  0  0
    7.7107    0.5861   -0.8931 Cl  0  0  0  0  0  0  0  0  0  0  0  0
    5.6200    1.0799    0.7879 C   0  0  0  0  0  0  0  0  0  0  0  0
    4.2999    1.0205    1.1648 C   0  0  0  0  0  0  0  0  0  0  0  0
   -2.5068   -2.2994   -0.9058 H   0  0  0  0  0  0  0  0  0  0  0  0
   -1.0714   -2.5008    0.1812 H   0  0  0  0  0  0  0  0  0  0  0  0
   -0.9701   -2.9095   -1.5256 H   0  0  0  0  0  0  0  0  0  0  0  0
   -1.2697   -0.5472   -2.2335 H   0  0  0  0  0  0  0  0  0  0  0  0
    0.8655   -0.0469   -1.8582 H   0  0  0  0  0  0  0  0  0  0  0  0
    0.9607   -1.7059   -1.1123 H   0  0  0  0  0  0  0  0  0  0  0  0
   -0.7886   -0.9567    1.4025 H   0  0  0  0  0  0  0  0  0  0  0  0
   -0.5400    0.8410    1.6762 H   0  0  0  0  0  0  0  0  0  0  0  0
   -1.0119    1.2723   -0.6919 H   0  0  0  0  0  0  0  0  0  0  0  0
   -3.1675    2.2156   -0.9988 H   0  0  0  0  0  0  0  0  0  0  0  0
   -5.5615    2.3535   -0.4363 H   0  0  0  0  0  0  0  0  0  0  0  0
   -5.2820   -1.1986    1.7876 H   0  0  0  0  0  0  0  0  0  0  0  0
   -2.8984   -1.4023    1.2754 H   0  0  0  0  0  0  0  0  0  0  0  0
    3.0500   -0.6401   -1.4137 H   0  0  0  0  0  0  0  0  0  0  0  0
    5.3439   -0.5517   -2.1165 H   0  0  0  0  0  0  0  0  0  0  0  0
    6.3505    1.5691    1.4201 H   0  0  0  0  0  0  0  0  0  0  0  0
    4.0313    1.4749    2.1001 H   0  0  0  0  0  0  0  0  0  0  0  0
  1  2  1  0
  2  3  1  0
  3  4  1  0
  4  5  1  0
  5  6  1  0
  6  7  1  0
  7  8  2  0
  8  9  1  0
  9 10  2  0
 10 11  1  0
 10 12  1  0
 12 13  2  0
  4 14  1  0
 14 15  2  0
 14 16  1  0
 16 17  2  0
 17 18  1  0
 18 19  2  0
 19 20  1  0
 19 21  1  0
 21 22  2  0
  6  2  1  0
 13  7  1  0
 22 16  1  0
  1 23  1  0
  1 24  1  0
  1 25  1  0
  2 26  1  6
  3 27  1  0
  3 28  1  0
  5 29  1  0
  5 30  1  0
  6 31  1  6
  8 32  1  0
  9 33  1  0
 12 34  1  0
 13 35  1  0
 17 36  1  0
 18 37  1  0
 21 38  1  0
 22 39  1  0
M  END
$$$$
[H]c1c([H])c([H])c(C([H])([H])[C@@]([H])(C(=O)N([H])[C@]([H])(C(=O)N([H])[C@]([H])(C(=O)N([H])[C@]([H])(C(=O)N([H])[C@]([H])(C(=O)N([H])[C@]([H])(C(=O)OC(C([H])([H])[H])(C([H])([H])[H])C([H])([H])[H])C([H])([H])C([H])(C([H])([H])[H])C([H])([H])[H])C([H])([H])C([H])(C([H])([H])[H])C([H])([H])[H])C([H])([H])C([H])(C([H])([H])[H])C([H])([H])[H])C([H])([H])C([H])(C([H])([H])[H])C([H])([H])[H])C([H])([H])C([H])(C([H])([H])[H])C([H])([H])[H])N([H])C(=O)OC(C([H])([H])[H])(C([H])([H])[H])C([H])([H])[H])c([H])c1[H]
     RDKit          3D

145145  0  0  0  0  0  0  0  0999 V2000
    2.5290   -1.9651   -4.5783 C   0  0  0  0  0  0  0  0  0  0  0  0
    1.6909   -2.6692   -3.5521 C   0  0  0  0  0  0  0  0  0  0  0  0
    2.5583   -3.5720   -2.7114 C   0  0  0  0  0  0  0  0  0  0  0  0
    0.7765   -1.7831   -2.7912 C   0  0  0  0  0  0  0  0  0  0  0  0
    1.3791   -0.6949   -2.0029 C   0  0  2  0  0  0  0  0  0  0  0  0
    2.3022   -1.1407   -0.9644 N   0  0  0  0  0  0  0  0  0  0  0  0
    3.3587   -0.2969   -0.6248 C   0  0  0  0  0  0  0  0  0  0  0  0
    3.4440    0.8271   -1.2825 O   0  0  0  0  0  0  0  0  0  0  0  0
    4.3688   -0.5295    0.3788 C   0  0  2  0  0  0  0  0  0  0  0  0
    3.8218   -0.6537    1.7640 C   0  0  0  0  0  0  0  0  0  0  0  0
    2.9050   -1.7504    2.0965 C   0  0  0  0  0  0  0  0  0  0  0  0
    3.5000   -3.1378    1.9074 C   0  0  0  0  0  0  0  0  0  0  0  0
    2.6523   -1.6848    3.6407 C   0  0  0  0  0  0  0  0  0  0  0  0
    5.3045    0.6201    0.3696 N   0  0  0  0  0  0  0  0  0  0  0  0
    6.7103    0.4671    0.4826 C   0  0  0  0  0  0  0  0  0  0  0  0
    7.1778   -0.6852    0.5939 O   0  0  0  0  0  0  0  0  0  0  0  0
    7.5787    1.7041    0.4689 C   0  0  2  0  0  0  0  0  0  0  0  0
    7.9355    2.1075   -0.9358 C   0  0  0  0  0  0  0  0  0  0  0  0
    8.7337    3.3344   -1.0395 C   0  0  0  0  0  0  0  0  0  0  0  0
   10.0824    3.3765   -1.1064 C   0  0  0  0  0  0  0  0  0  0  0  0
   10.7829    4.5912   -1.1892 C   0  0  0  0  0  0  0  0  0  0  0  0
   10.1007    5.7742   -1.2055 C   0  0  0  0  0  0  0  0  0  0  0  0
    8.7299    5.7427   -1.1396 C   0  0  0  0  0  0  0  0  0  0  0  0
    8.0543    4.5650   -1.0590 C   0  0  0  0  0  0  0  0  0  0  0  0
    8.7117    1.3947    1.2935 N   0  0  0  0  0  0  0  0  0  0  0  0
    9.7721    0.5316    0.9786 C   0  0  0  0  0  0  0  0  0  0  0  0
    9.8857   -0.1148   -0.1154 O   0  0  0  0  0  0  0  0  0  0  0  0
   10.7857    0.3692    1.9455 O   0  0  0  0  0  0  0  0  0  0  0  0
   11.8708   -0.4874    1.6605 C   0  0  0  0  0  0  0  0  0  0  0  0
   12.6226   -0.0164    0.4341 C   0  0  0  0  0  0  0  0  0  0  0  0
   12.8431   -0.4087    2.8357 C   0  0  0  0  0  0  0  0  0  0  0  0
   11.3767   -1.8983    1.5094 C   0  0  0  0  0  0  0  0  0  0  0  0
    0.3154    0.0998   -1.2835 C   0  0  0  0  0  0  0  0  0  0  0  0
    0.5077    0.2735   -0.0384 O   0  0  0  0  0  0  0  0  0  0  0  0
   -0.8201    0.6181   -1.9395 N   0  0  0  0  0  0  0  0  0  0  0  0
   -1.8437    1.3898   -1.2542 C   0  0  1  0  0  0  0  0  0  0  0  0
   -2.2512    2.6190   -1.9509 C   0  0  0  0  0  0  0  0  0  0  0  0
   -2.8077    2.4978   -3.3184 C   0  0  0  0  0  0  0  0  0  0  0  0
   -3.1276    3.9310   -3.7841 C   0  0  0  0  0  0  0  0  0  0  0  0
   -4.1300    1.7685   -3.4063 C   0  0  0  0  0  0  0  0  0  0  0  0
   -2.8924    0.5358   -0.6803 C   0  0  0  0  0  0  0  0  0  0  0  0
   -2.8259   -0.6983   -0.8481 O   0  0  0  0  0  0  0  0  0  0  0  0
   -3.9675    1.0601    0.0598 N   0  0  0  0  0  0  0  0  0  0  0  0
   -4.9755    0.1949    0.6454 C   0  0  1  0  0  0  0  0  0  0  0  0
   -5.1723    0.5518    2.1208 C   0  0  0  0  0  0  0  0  0  0  0  0
   -3.9321    0.4111    2.9315 C   0  0  0  0  0  0  0  0  0  0  0  0
   -4.2583    0.7958    4.3537 C   0  0  0  0  0  0  0  0  0  0  0  0
   -3.4617   -1.0478    2.9579 C   0  0  0  0  0  0  0  0  0  0  0  0
   -6.3239    0.3331    0.0387 C   0  0  0  0  0  0  0  0  0  0  0  0
   -6.6291    1.1564   -0.8383 O   0  0  0  0  0  0  0  0  0  0  0  0
   -7.3212   -0.5590    0.5126 N   0  0  0  0  0  0  0  0  0  0  0  0
   -8.6707   -0.5078   -0.0205 C   0  0  1  0  0  0  0  0  0  0  0  0
   -9.0001   -1.9039   -0.4957 C   0  0  0  0  0  0  0  0  0  0  0  0
   -8.0824   -2.4181   -1.5602 C   0  0  0  0  0  0  0  0  0  0  0  0
   -8.5617   -3.8346   -1.9127 C   0  0  0  0  0  0  0  0  0  0  0  0
   -8.0882   -1.5885   -2.8231 C   0  0  0  0  0  0  0  0  0  0  0  0
   -9.5793   -0.1435    1.1087 C   0  0  0  0  0  0  0  0  0  0  0  0
   -9.0698    0.0980    2.2251 O   0  0  0  0  0  0  0  0  0  0  0  0
  -10.9532   -0.0595    0.9828 O   0  0  0  0  0  0  0  0  0  0  0  0
  -11.7258    0.2864    2.0909 C   0  0  0  0  0  0  0  0  0  0  0  0
  -13.1926    0.3277    1.6587 C   0  0  0  0  0  0  0  0  0  0  0  0
  -11.3410    1.6615    2.5713 C   0  0  0  0  0  0  0  0  0  0  0  0
  -11.6442   -0.6773    3.2376 C   0  0  0  0  0  0  0  0  0  0  0  0
    3.5441   -1.7077   -4.2597 H   0  0  0  0  0  0  0  0  0  0  0  0
    2.6767   -2.6476   -5.4670 H   0  0  0  0  0  0  0  0  0  0  0  0
    2.0690   -1.0387   -4.9675 H   0  0  0  0  0  0  0  0  0  0  0  0
    1.0291   -3.3702   -4.1414 H   0  0  0  0  0  0  0  0  0  0  0  0
    3.0003   -4.3656   -3.3682 H   0  0  0  0  0  0  0  0  0  0  0  0
    1.9992   -4.1357   -1.9382 H   0  0  0  0  0  0  0  0  0  0  0  0
    3.4398   -3.0565   -2.2748 H   0  0  0  0  0  0  0  0  0  0  0  0
    0.0032   -1.4194   -3.5231 H   0  0  0  0  0  0  0  0  0  0  0  0
    0.1806   -2.4440   -2.1056 H   0  0  0  0  0  0  0  0  0  0  0  0
    1.8530    0.0623   -2.6681 H   0  0  0  0  0  0  0  0  0  0  0  0
    2.1097   -2.0690   -0.5602 H   0  0  0  0  0  0  0  0  0  0  0  0
    5.0281   -1.3970    0.1329 H   0  0  0  0  0  0  0  0  0  0  0  0
    3.2911    0.3128    2.0537 H   0  0  0  0  0  0  0  0  0  0  0  0
    4.6768   -0.6633    2.5179 H   0  0  0  0  0  0  0  0  0  0  0  0
    1.9014   -1.7409    1.6757 H   0  0  0  0  0  0  0  0  0  0  0  0
    3.4277   -3.4548    0.8585 H   0  0  0  0  0  0  0  0  0  0  0  0
    2.9053   -3.8339    2.5187 H   0  0  0  0  0  0  0  0  0  0  0  0
    4.5373   -3.1676    2.3009 H   0  0  0  0  0  0  0  0  0  0  0  0
    2.0462   -0.7664    3.7558 H   0  0  0  0  0  0  0  0  0  0  0  0
    2.1691   -2.6195    3.8993 H   0  0  0  0  0  0  0  0  0  0  0  0
    3.6349   -1.5804    4.1117 H   0  0  0  0  0  0  0  0  0  0  0  0
    4.8815    1.5520    0.2764 H   0  0  0  0  0  0  0  0  0  0  0  0
    7.0189    2.5791    0.8930 H   0  0  0  0  0  0  0  0  0  0  0  0
    6.9735    2.2626   -1.5148 H   0  0  0  0  0  0  0  0  0  0  0  0
    8.4061    1.2416   -1.4630 H   0  0  0  0  0  0  0  0  0  0  0  0
   10.6903    2.5071   -1.1149 H   0  0  0  0  0  0  0  0  0  0  0  0
   11.8656    4.6256   -1.2360 H   0  0  0  0  0  0  0  0  0  0  0  0
   10.5501    6.7613   -1.2635 H   0  0  0  0  0  0  0  0  0  0  0  0
    8.1609    6.6712   -1.1518 H   0  0  0  0  0  0  0  0  0  0  0  0
    6.9689    4.4974   -1.0069 H   0  0  0  0  0  0  0  0  0  0  0  0
    8.7438    1.8797    2.2581 H   0  0  0  0  0  0  0  0  0  0  0  0
   12.3713   -0.6293   -0.4628 H   0  0  0  0  0  0  0  0  0  0  0  0
   12.3369    1.0276    0.2224 H   0  0  0  0  0  0  0  0  0  0  0  0
   13.7220   -0.0534    0.6121 H   0  0  0  0  0  0  0  0  0  0  0  0
   12.3710   -0.7737    3.7661 H   0  0  0  0  0  0  0  0  0  0  0  0
   13.2224    0.6267    2.9221 H   0  0  0  0  0  0  0  0  0  0  0  0
   13.6712   -1.1085    2.6096 H   0  0  0  0  0  0  0  0  0  0  0  0
   11.3527   -2.1322    0.4171 H   0  0  0  0  0  0  0  0  0  0  0  0
   10.3741   -2.0679    1.9344 H   0  0  0  0  0  0  0  0  0  0  0  0
   12.0656   -2.6131    2.0424 H   0  0  0  0  0  0  0  0  0  0  0  0
   -0.9251    0.4376   -2.9588 H   0  0  0  0  0  0  0  0  0  0  0  0
   -1.2910    1.7517   -0.3091 H   0  0  0  0  0  0  0  0  0  0  0  0
   -1.3425    3.2823   -2.0231 H   0  0  0  0  0  0  0  0  0  0  0  0
   -2.9795    3.1845   -1.3353 H   0  0  0  0  0  0  0  0  0  0  0  0
   -2.1002    2.1110   -4.0809 H   0  0  0  0  0  0  0  0  0  0  0  0
   -4.1009    4.1959   -3.2803 H   0  0  0  0  0  0  0  0  0  0  0  0
   -2.3532    4.6422   -3.5091 H   0  0  0  0  0  0  0  0  0  0  0  0
   -3.3577    3.9095   -4.8729 H   0  0  0  0  0  0  0  0  0  0  0  0
   -4.1116    0.7424   -3.0355 H   0  0  0  0  0  0  0  0  0  0  0  0
   -4.5088    1.8456   -4.4500 H   0  0  0  0  0  0  0  0  0  0  0  0
   -4.8405    2.3418   -2.7547 H   0  0  0  0  0  0  0  0  0  0  0  0
   -4.0452    2.0823    0.1942 H   0  0  0  0  0  0  0  0  0  0  0  0
   -4.6910   -0.8637    0.4962 H   0  0  0  0  0  0  0  0  0  0  0  0
   -5.9818   -0.0082    2.5794 H   0  0  0  0  0  0  0  0  0  0  0  0
   -5.4683    1.6319    2.1273 H   0  0  0  0  0  0  0  0  0  0  0  0
   -3.0886    1.0465    2.5921 H   0  0  0  0  0  0  0  0  0  0  0  0
   -5.2478    1.2756    4.4498 H   0  0  0  0  0  0  0  0  0  0  0  0
   -3.4837    1.4863    4.7781 H   0  0  0  0  0  0  0  0  0  0  0  0
   -4.2913   -0.1080    4.9923 H   0  0  0  0  0  0  0  0  0  0  0  0
   -3.0753   -1.2996    3.9837 H   0  0  0  0  0  0  0  0  0  0  0  0
   -4.3326   -1.7248    2.7896 H   0  0  0  0  0  0  0  0  0  0  0  0
   -2.6670   -1.1499    2.2139 H   0  0  0  0  0  0  0  0  0  0  0  0
   -7.0633   -1.2570    1.2498 H   0  0  0  0  0  0  0  0  0  0  0  0
   -8.7556    0.2418   -0.8107 H   0  0  0  0  0  0  0  0  0  0  0  0
  -10.0489   -1.8997   -0.8908 H   0  0  0  0  0  0  0  0  0  0  0  0
   -9.0023   -2.6335    0.3315 H   0  0  0  0  0  0  0  0  0  0  0  0
   -7.0379   -2.5176   -1.2217 H   0  0  0  0  0  0  0  0  0  0  0  0
   -8.0847   -4.5055   -1.1655 H   0  0  0  0  0  0  0  0  0  0  0  0
   -8.2591   -4.1047   -2.9491 H   0  0  0  0  0  0  0  0  0  0  0  0
   -9.6491   -3.8605   -1.7556 H   0  0  0  0  0  0  0  0  0  0  0  0
   -7.1071   -1.7532   -3.3305 H   0  0  0  0  0  0  0  0  0  0  0  0
   -8.1593   -0.5036   -2.6144 H   0  0  0  0  0  0  0  0  0  0  0  0
   -8.8742   -1.9237   -3.5352 H   0  0  0  0  0  0  0  0  0  0  0  0
  -13.7555    0.9844    2.3774 H   0  0  0  0  0  0  0  0  0  0  0  0
  -13.6431   -0.6617    1.7140 H   0  0  0  0  0  0  0  0  0  0  0  0
  -13.2575    0.7774    0.6639 H   0  0  0  0  0  0  0  0  0  0  0  0
  -10.8188    1.6267    3.5511 H   0  0  0  0  0  0  0  0  0  0  0  0
  -12.2303    2.3072    2.6558 H   0  0  0  0  0  0  0  0  0  0  0  0
  -10.6633    2.1285    1.8264 H   0  0  0  0  0  0  0  0  0  0  0  0
  -11.8667   -0.1736    4.2214 H   0  0  0  0  0  0  0  0  0  0  0  0
  -10.7390   -1.2936    3.2769 H   0  0  0  0  0  0  0  0  0  0  0  0
  -12.4895   -1.4193    3.1247 H   0  0  0  0  0  0  0  0  0  0  0  0
  1  2  1  0
  2  3  1  0
  2  4  1  0
  4  5  1  0
  5  6  1  0
  6  7  1  0
  7  8  2  0
  7  9  1  0
  9 10  1  0
 10 11  1  0
 11 12  1  0
 11 13  1  0
  9 14  1  0
 14 15  1  0
 15 16  2  0
 15 17  1  0
 17 18  1  0
 18 19  1  0
 19 20  2  0
 20 21  1  0
 21 22  2  0
 22 23  1  0
 23 24  2  0
 17 25  1  0
 25 26  1  0
 26 27  2  0
 26 28  1  0
 28 29  1  0
 29 30  1  0
 29 31  1  0
 29 32  1  0
  5 33  1  0
 33 34  2  0
 33 35  1  0
 35 36  1  0
 36 37  1  0
 37 38  1  0
 38 39  1  0
 38 40  1  0
 36 41  1  0
 41 42  2  0
 41 43  1  0
 43 44  1  0
 44 45  1  0
 45 46  1  0
 46 47  1  0
 46 48  1  0
 44 49  1  0
 49 50  2  0
 49 51  1  0
 51 52  1  0
 52 53  1  0
 53 54  1  0
 54 55  1  0
 54 56  1  0
 52 57  1  0
 57 58  2  0
 57 59  1  0
 59 60  1  0
 60 61  1  0
 60 62  1  0
 60 63  1  0
 24 19  1  0
  1 64  1  0
  1 65  1  0
  1 66  1  0
  2 67  1  0
  3 68  1  0
  3 69  1  0
  3 70  1  0
  4 71  1  0
  4 72  1  0
  5 73  1  6
  6 74  1  0
  9 75  1  6
 10 76  1  0
 10 77  1  0
 11 78  1  0
 12 79  1  0
 12 80  1  0
 12 81  1  0
 13 82  1  0
 13 83  1  0
 13 84  1  0
 14 85  1  0
 17 86  1  1
 18 87  1  0
 18 88  1  0
 20 89  1  0
 21 90  1  0
 22 91  1  0
 23 92  1  0
 24 93  1  0
 25 94  1  0
 30 95  1  0
 30 96  1  0
 30 97  1  0
 31 98  1  0
 31 99  1  0
 31100  1  0
 32101  1  0
 32102  1  0
 32103  1  0
 35104  1  0
 36105  1  1
 37106  1  0
 37107  1  0
 38108  1  0
 39109  1  0
 39110  1  0
 39111  1  0
 40112  1  0
 40113  1  0
 40114  1  0
 43115  1  0
 44116  1  1
 45117  1  0
 45118  1  0
 46119  1  0
 47120  1  0
 47121  1  0
 47122  1  0
 48123  1  0
 48124  1  0
 48125  1  0
 51126  1  0
 52127  1  6
 53128  1  0
 53129  1  0
 54130  1  0
 55131  1  0
 55132  1  0
 55133  1  0
 56134  1  0
 56135  1  0
 56136  1  0
 61137  1  0
 61138  1  0
 61139  1  0
 62140  1  0
 62141  1  0
 62142  1  0
 63143  1  0
 63144  1  0
 63145  1  0
M  END
$$$$
[H]c1c([H])c([H])c(C([H])([H])C(=O)N([H])[C@]([H])(C(=O)N([H])[C@]([H])(C(=O)N([H])[C@]([H])(C(=O)N([H])[C@]([H])(C(=O)N([H])[C@]([H])(C(=O)N([H])[H])C([H])([H])c2c([H])c([H])c([H])c([H])c2[H])C([H])([H])C([H])(C([H])([H])[H])C([H])([H])[H])C([H])([H])c2c([H])c([H])c([H])c([H])c2[H])C([H])([H])C([H])(C([H])([H])[H])C([H])([H])[H])C([H])([H])c2c([H])c([H])c([H])c([H])c2[H])c([H])c1[H]
     RDKit          3D

117120  0  0  0  0  0  0  0  0999 V2000
    3.6942   -4.8699    0.8519 C   0  0  0  0  0  0  0  0  0  0  0  0
    2.4234   -4.6157    0.1565 C   0  0  0  0  0  0  0  0  0  0  0  0
    1.4402   -5.7032    0.6389 C   0  0  0  0  0  0  0  0  0  0  0  0
    1.7456   -3.3144    0.3477 C   0  0  0  0  0  0  0  0  0  0  0  0
    2.4222   -2.0839   -0.0111 C   0  0  2  0  0  0  0  0  0  0  0  0
    3.6347   -1.8060    0.7666 N   0  0  0  0  0  0  0  0  0  0  0  0
    4.6127   -0.9240    0.2835 C   0  0  0  0  0  0  0  0  0  0  0  0
    4.2420   -0.4177   -0.8992 O   0  0  0  0  0  0  0  0  0  0  0  0
    5.8810   -0.4428    0.7527 C   0  0  2  0  0  0  0  0  0  0  0  0
    6.4858   -0.8498    1.9960 C   0  0  0  0  0  0  0  0  0  0  0  0
    6.9048   -2.2078    2.2945 C   0  0  0  0  0  0  0  0  0  0  0  0
    6.1549   -3.0314    3.0870 C   0  0  0  0  0  0  0  0  0  0  0  0
    6.5208   -4.3193    3.4053 C   0  0  0  0  0  0  0  0  0  0  0  0
    7.6855   -4.8375    2.9244 C   0  0  0  0  0  0  0  0  0  0  0  0
    8.4566   -4.0181    2.1205 C   0  0  0  0  0  0  0  0  0  0  0  0
    8.0984   -2.7399    1.8015 C   0  0  0  0  0  0  0  0  0  0  0  0
    5.9926    1.0077    0.6201 N   0  0  0  0  0  0  0  0  0  0  0  0
    6.4539    1.6719   -0.5250 C   0  0  0  0  0  0  0  0  0  0  0  0
    6.7790    1.0212   -1.5343 O   0  0  0  0  0  0  0  0  0  0  0  0
    6.5585    3.1399   -0.5376 C   0  0  0  0  0  0  0  0  0  0  0  0
    6.2179    3.6863   -1.8546 C   0  0  0  0  0  0  0  0  0  0  0  0
    4.9161    4.1358   -2.0883 C   0  0  0  0  0  0  0  0  0  0  0  0
    4.5500    4.6718   -3.2961 C   0  0  0  0  0  0  0  0  0  0  0  0
    5.4382    4.7958   -4.3401 C   0  0  0  0  0  0  0  0  0  0  0  0
    6.7455    4.3513   -4.1258 C   0  0  0  0  0  0  0  0  0  0  0  0
    7.0931    3.8141   -2.8997 C   0  0  0  0  0  0  0  0  0  0  0  0
    1.5087   -0.8854   -0.0174 C   0  0  0  0  0  0  0  0  0  0  0  0
    1.8237    0.1438    0.6036 O   0  0  0  0  0  0  0  0  0  0  0  0
    0.2876   -0.9121   -0.7387 N   0  0  0  0  0  0  0  0  0  0  0  0
   -0.6526    0.1428   -0.8774 C   0  0  1  0  0  0  0  0  0  0  0  0
   -0.9155    0.3086   -2.3694 C   0  0  0  0  0  0  0  0  0  0  0  0
    0.2906    0.6349   -3.1558 C   0  0  0  0  0  0  0  0  0  0  0  0
    1.0961   -0.3676   -3.6587 C   0  0  0  0  0  0  0  0  0  0  0  0
    2.1915   -0.0315   -4.4258 C   0  0  0  0  0  0  0  0  0  0  0  0
    2.4998    1.2997   -4.7022 C   0  0  0  0  0  0  0  0  0  0  0  0
    1.6839    2.2794   -4.1907 C   0  0  0  0  0  0  0  0  0  0  0  0
    0.6012    1.9446   -3.4325 C   0  0  0  0  0  0  0  0  0  0  0  0
   -1.9808   -0.1163   -0.1982 C   0  0  0  0  0  0  0  0  0  0  0  0
   -2.0433   -1.1621    0.4506 O   0  0  0  0  0  0  0  0  0  0  0  0
   -3.0328    0.7920   -0.3353 N   0  0  0  0  0  0  0  0  0  0  0  0
   -4.3348    0.6532    0.1992 C   0  0  1  0  0  0  0  0  0  0  0  0
   -4.7809   -0.7946    0.3748 C   0  0  0  0  0  0  0  0  0  0  0  0
   -4.8512   -1.5096   -0.9553 C   0  0  0  0  0  0  0  0  0  0  0  0
   -5.8768   -0.8055   -1.8612 C   0  0  0  0  0  0  0  0  0  0  0  0
   -5.2875   -2.9397   -0.7930 C   0  0  0  0  0  0  0  0  0  0  0  0
   -4.7180    1.5435    1.2936 C   0  0  0  0  0  0  0  0  0  0  0  0
   -3.8760    2.3384    1.7724 O   0  0  0  0  0  0  0  0  0  0  0  0
   -6.0110    1.5751    1.8663 N   0  0  0  0  0  0  0  0  0  0  0  0
   -6.4051    2.4498    2.9331 C   0  0  1  0  0  0  0  0  0  0  0  0
   -7.3531    3.5238    2.4841 C   0  0  0  0  0  0  0  0  0  0  0  0
   -8.6189    3.0790    1.9180 C   0  0  0  0  0  0  0  0  0  0  0  0
   -8.7299    2.8208    0.5803 C   0  0  0  0  0  0  0  0  0  0  0  0
   -9.9043    2.4076   -0.0288 C   0  0  0  0  0  0  0  0  0  0  0  0
  -10.9897    2.2667    0.8130 C   0  0  0  0  0  0  0  0  0  0  0  0
  -10.9141    2.5189    2.1686 C   0  0  0  0  0  0  0  0  0  0  0  0
   -9.7244    2.9222    2.7034 C   0  0  0  0  0  0  0  0  0  0  0  0
   -6.8181    1.7479    4.1519 C   0  0  0  0  0  0  0  0  0  0  0  0
   -7.2328    2.3887    5.3571 N   0  0  0  0  0  0  0  0  0  0  0  0
   -6.8239    0.4916    4.1896 O   0  0  0  0  0  0  0  0  0  0  0  0
    3.5993   -4.6634    1.9402 H   0  0  0  0  0  0  0  0  0  0  0  0
    4.5075   -4.1934    0.4757 H   0  0  0  0  0  0  0  0  0  0  0  0
    4.0387   -5.9303    0.7908 H   0  0  0  0  0  0  0  0  0  0  0  0
    2.5955   -4.7999   -0.9380 H   0  0  0  0  0  0  0  0  0  0  0  0
    0.4500   -5.5666    0.2105 H   0  0  0  0  0  0  0  0  0  0  0  0
    1.8910   -6.6988    0.4336 H   0  0  0  0  0  0  0  0  0  0  0  0
    1.3645   -5.6259    1.7558 H   0  0  0  0  0  0  0  0  0  0  0  0
    0.7413   -3.3453   -0.1974 H   0  0  0  0  0  0  0  0  0  0  0  0
    1.3770   -3.2543    1.4337 H   0  0  0  0  0  0  0  0  0  0  0  0
    2.8172   -2.0711   -1.0843 H   0  0  0  0  0  0  0  0  0  0  0  0
    3.6703   -2.2989    1.6706 H   0  0  0  0  0  0  0  0  0  0  0  0
    6.5900   -0.7917   -0.1458 H   0  0  0  0  0  0  0  0  0  0  0  0
    5.9014   -0.4338    2.9119 H   0  0  0  0  0  0  0  0  0  0  0  0
    7.4483   -0.2226    2.1185 H   0  0  0  0  0  0  0  0  0  0  0  0
    5.1955   -2.7069    3.5218 H   0  0  0  0  0  0  0  0  0  0  0  0
    5.8882   -4.9559    4.0447 H   0  0  0  0  0  0  0  0  0  0  0  0
    8.0222   -5.8376    3.1410 H   0  0  0  0  0  0  0  0  0  0  0  0
    9.3816   -4.4225    1.7265 H   0  0  0  0  0  0  0  0  0  0  0  0
    8.7043   -2.1372    1.1879 H   0  0  0  0  0  0  0  0  0  0  0  0
    5.6924    1.5528    1.4642 H   0  0  0  0  0  0  0  0  0  0  0  0
    7.6549    3.3676   -0.3317 H   0  0  0  0  0  0  0  0  0  0  0  0
    5.9345    3.6305    0.2488 H   0  0  0  0  0  0  0  0  0  0  0  0
    4.2182    4.0362   -1.2662 H   0  0  0  0  0  0  0  0  0  0  0  0
    3.5271    5.0129   -3.4367 H   0  0  0  0  0  0  0  0  0  0  0  0
    5.1475    5.2195   -5.2993 H   0  0  0  0  0  0  0  0  0  0  0  0
    7.4304    4.4532   -4.9476 H   0  0  0  0  0  0  0  0  0  0  0  0
    8.1150    3.4583   -2.7224 H   0  0  0  0  0  0  0  0  0  0  0  0
    0.0389   -1.8158   -1.2409 H   0  0  0  0  0  0  0  0  0  0  0  0
   -0.2587    1.0720   -0.4800 H   0  0  0  0  0  0  0  0  0  0  0  0
   -1.6960    1.0905   -2.5555 H   0  0  0  0  0  0  0  0  0  0  0  0
   -1.3727   -0.6483   -2.7590 H   0  0  0  0  0  0  0  0  0  0  0  0
    0.8809   -1.4253   -3.4503 H   0  0  0  0  0  0  0  0  0  0  0  0
    2.8425   -0.7812   -4.8384 H   0  0  0  0  0  0  0  0  0  0  0  0
    3.3603    1.5765   -5.3057 H   0  0  0  0  0  0  0  0  0  0  0  0
    1.9124    3.3451   -4.3913 H   0  0  0  0  0  0  0  0  0  0  0  0
   -0.0204    2.7583   -3.0478 H   0  0  0  0  0  0  0  0  0  0  0  0
   -2.7838    1.6726   -0.9134 H   0  0  0  0  0  0  0  0  0  0  0  0
   -5.0101    0.9183   -0.7415 H   0  0  0  0  0  0  0  0  0  0  0  0
   -5.8714   -0.7116    0.7029 H   0  0  0  0  0  0  0  0  0  0  0  0
   -4.2807   -1.3242    1.1708 H   0  0  0  0  0  0  0  0  0  0  0  0
   -3.8821   -1.5120   -1.4594 H   0  0  0  0  0  0  0  0  0  0  0  0
   -6.6752   -0.3110   -1.2724 H   0  0  0  0  0  0  0  0  0  0  0  0
   -6.3782   -1.5871   -2.4794 H   0  0  0  0  0  0  0  0  0  0  0  0
   -5.3085   -0.1011   -2.5037 H   0  0  0  0  0  0  0  0  0  0  0  0
   -5.9932   -3.0937    0.0314 H   0  0  0  0  0  0  0  0  0  0  0  0
   -4.3788   -3.5851   -0.7163 H   0  0  0  0  0  0  0  0  0  0  0  0
   -5.7758   -3.2630   -1.7427 H   0  0  0  0  0  0  0  0  0  0  0  0
   -6.7335    0.9107    1.4795 H   0  0  0  0  0  0  0  0  0  0  0  0
   -5.4575    3.0166    3.2105 H   0  0  0  0  0  0  0  0  0  0  0  0
   -7.5430    4.2215    3.3521 H   0  0  0  0  0  0  0  0  0  0  0  0
   -6.7536    4.1756    1.7785 H   0  0  0  0  0  0  0  0  0  0  0  0
   -7.8851    2.9228   -0.1117 H   0  0  0  0  0  0  0  0  0  0  0  0
   -9.9636    2.2115   -1.0897 H   0  0  0  0  0  0  0  0  0  0  0  0
  -11.9491    1.9431    0.3893 H   0  0  0  0  0  0  0  0  0  0  0  0
  -11.8176    2.3889    2.7937 H   0  0  0  0  0  0  0  0  0  0  0  0
   -9.7321    3.1070    3.7814 H   0  0  0  0  0  0  0  0  0  0  0  0
   -6.6388    2.1715    6.2065 H   0  0  0  0  0  0  0  0  0  0  0  0
   -8.0348    3.0189    5.4412 H   0  0  0  0  0  0  0  0  0  0  0  0
  1  2  1  0
  2  3  1  0
  2  4  1  0
  4  5  1  0
  5  6  1  0
  6  7  1  0
  7  8  2  0
  7  9  1  0
  9 10  1  0
 10 11  1  0
 11 12  2  0
 12 13  1  0
 13 14  2  0
 14 15  1  0
 15 16  2  0
  9 17  1  0
 17 18  1  0
 18 19  2  0
 18 20  1  0
 20 21  1  0
 21 22  2  0
 22 23  1  0
 23 24  2  0
 24 25  1  0
 25 26  2  0
  5 27  1  0
 27 28  2  0
 27 29  1  0
 29 30  1  0
 30 31  1  0
 31 32  1  0
 32 33  2  0
 33 34  1  0
 34 35  2  0
 35 36  1  0
 36 37  2  0
 30 38  1  0
 38 39  2  0
 38 40  1  0
 40 41  1  0
 41 42  1  0
 42 43  1  0
 43 44  1  0
 43 45  1  0
 41 46  1  0
 46 47  2  0
 46 48  1  0
 48 49  1  0
 49 50  1  0
 50 51  1  0
 51 52  2  0
 52 53  1  0
 53 54  2  0
 54 55  1  0
 55 56  2  0
 49 57  1  0
 57 58  1  0
 57 59  2  0
 16 11  1  0
 26 21  1  0
 37 32  1  0
 56 51  1  0
  1 60  1  0
  1 61  1  0
  1 62  1  0
  2 63  1  0
  3 64  1  0
  3 65  1  0
  3 66  1  0
  4 67  1  0
  4 68  1  0
  5 69  1  6
  6 70  1  0
  9 71  1  6
 10 72  1  0
 10 73  1  0
 12 74  1  0
 13 75  1  0
 14 76  1  0
 15 77  1  0
 16 78  1  0
 17 79  1  0
 20 80  1  0
 20 81  1  0
 22 82  1  0
 23 83  1  0
 24 84  1  0
 25 85  1  0
 26 86  1  0
 29 87  1  0
 30 88  1  1
 31 89  1  0
 31 90  1  0
 33 91  1  0
 34 92  1  0
 35 93  1  0
 36 94  1  0
 37 95  1  0
 40 96  1  0
 41 97  1  6
 42 98  1  0
 42 99  1  0
 43100  1  0
 44101  1  0
 44102  1  0
 44103  1  0
 45104  1  0
 45105  1  0
 45106  1  0
 48107  1  0
 49108  1  1
 50109  1  0
 50110  1  0
 52111  1  0
 53112  1  0
 54113  1  0
 55114  1  0
 56115  1  0
 58116  1  0
 58117  1  0
M  END
$$$$
[H]c1c([H])c(C2([H])C([H])([H])C2([H])[H])c([H])c([H])c1N([H])S(=O)(=O)c1c([H])c([H])c(C(F)(F)F)c([H])c1[H]
     RDKit          3D

 37 39  0  0  0  0  0  0  0  0999 V2000
    6.4171   -1.7997    1.6118 F   0  0  0  0  0  0  0  0  0  0  0  0
    6.5261   -1.0522    0.4532 C   0  0  0  0  0  0  0  0  0  0  0  0
    7.4363   -0.0299    0.5775 F   0  0  0  0  0  0  0  0  0  0  0  0
    7.0299   -1.8907   -0.5487 F   0  0  0  0  0  0  0  0  0  0  0  0
    5.2011   -0.4942    0.0512 C   0  0  0  0  0  0  0  0  0  0  0  0
    4.1433   -0.5167    0.9460 C   0  0  0  0  0  0  0  0  0  0  0  0
    2.9080   -0.0042    0.6245 C   0  0  0  0  0  0  0  0  0  0  0  0
    2.6859    0.5492   -0.6291 C   0  0  0  0  0  0  0  0  0  0  0  0
    3.7405    0.5711   -1.5208 C   0  0  0  0  0  0  0  0  0  0  0  0
    4.9793    0.0632   -1.2045 C   0  0  0  0  0  0  0  0  0  0  0  0
    1.1780    1.2226   -1.1878 S   0  0  0  0  0  0  0  0  0  0  0  0
    0.5477    0.1829   -2.0779 O   0  0  0  0  0  0  0  0  0  0  0  0
    1.4997    2.4778   -1.9684 O   0  0  0  0  0  0  0  0  0  0  0  0
    0.1244    1.6461    0.0626 N   0  0  0  0  0  0  0  0  0  0  0  0
   -1.1230    0.9462    0.1933 C   0  0  0  0  0  0  0  0  0  0  0  0
   -1.9992    0.7845   -0.8575 C   0  0  0  0  0  0  0  0  0  0  0  0
   -3.2164    0.1313   -0.7610 C   0  0  0  0  0  0  0  0  0  0  0  0
   -3.5867   -0.3858    0.4387 C   0  0  0  0  0  0  0  0  0  0  0  0
   -2.7373   -0.2468    1.5373 C   0  0  0  0  0  0  0  0  0  0  0  0
   -1.5480    0.3971    1.4021 C   0  0  0  0  0  0  0  0  0  0  0  0
   -4.8829   -1.0828    0.6332 C   0  0  0  0  0  0  0  0  0  0  0  0
   -5.9072   -0.8917   -0.4329 C   0  0  0  0  0  0  0  0  0  0  0  0
   -6.1059   -0.2278    0.8562 C   0  0  0  0  0  0  0  0  0  0  0  0
    4.3111   -0.9440    1.9516 H   0  0  0  0  0  0  0  0  0  0  0  0
    2.0868   -0.0180    1.3025 H   0  0  0  0  0  0  0  0  0  0  0  0
    3.6292    0.9829   -2.5563 H   0  0  0  0  0  0  0  0  0  0  0  0
    5.8194    0.0639   -1.9163 H   0  0  0  0  0  0  0  0  0  0  0  0
    0.3000    2.3897    0.7818 H   0  0  0  0  0  0  0  0  0  0  0  0
   -1.7411    1.1935   -1.8345 H   0  0  0  0  0  0  0  0  0  0  0  0
   -3.8358    0.0495   -1.6607 H   0  0  0  0  0  0  0  0  0  0  0  0
   -3.0770   -0.6853    2.4817 H   0  0  0  0  0  0  0  0  0  0  0  0
   -0.8824    0.5113    2.2473 H   0  0  0  0  0  0  0  0  0  0  0  0
   -4.8655   -1.9483    1.2931 H   0  0  0  0  0  0  0  0  0  0  0  0
   -6.4205   -1.8561   -0.7122 H   0  0  0  0  0  0  0  0  0  0  0  0
   -5.7757   -0.2590   -1.3011 H   0  0  0  0  0  0  0  0  0  0  0  0
   -6.9129   -0.6677    1.5076 H   0  0  0  0  0  0  0  0  0  0  0  0
   -5.9463    0.8382    0.9460 H   0  0  0  0  0  0  0  0  0  0  0  0
  1  2  1  0
  2  3  1  0
  2  4  1  0
  2  5  1  0
  5  6  2  0
  6  7  1  0
  7  8  2  0
  8  9  1  0
  9 10  2  0
  8 11  1  0
 11 12  2  0
 11 13  2  0
 11 14  1  0
 14 15  1  0
 15 16  2  0
 16 17  1  0
 17 18  2  0
 18 19  1  0
 19 20  2  0
 18 21  1  0
 21 22  1  0
 22 23  1  0
 10  5  1  0
 20 15  1  0
 23 21  1  0
  6 24  1  0
  7 25  1  0
  9 26  1  0
 10 27  1  0
 14 28  1  0
 16 29  1  0
 17 30  1  0
 19 31  1  0
 20 32  1  0
 21 33  1  0
 22 34  1  0
 22 35  1  0
 23 36  1  0
 23 37  1  0
M  END
$$$$
[H]c1c([H])c(S(=O)(=O)N([H])C(=O)c2c([H])c([H])c([C@@]([H])(N([H])S(=O)(=O)c3c([H])c([H])c(C(F)(F)F)c([H])c3[H])C([H])(C([H])([H])[H])C([H])([H])[H])c([H])c2[H])c([H])c([H])c1F
     RDKit          3D

 59 61  0  0  0  0  0  0  0  0999 V2000
    2.9059   -3.4207   -2.1489 C   0  0  0  0  0  0  0  0  0  0  0  0
    1.6046   -2.7843   -1.6969 C   0  0  0  0  0  0  0  0  0  0  0  0
    0.7216   -3.7980   -1.0278 C   0  0  0  0  0  0  0  0  0  0  0  0
    1.8725   -1.5564   -0.7911 C   0  0  2  0  0  0  0  0  0  0  0  0
    2.5286   -1.8822    0.3846 N   0  0  0  0  0  0  0  0  0  0  0  0
    4.1161   -1.6717    0.7351 S   0  0  0  0  0  0  0  0  0  0  0  0
    4.3100   -2.1385    2.2112 O   0  0  0  0  0  0  0  0  0  0  0  0
    5.0727   -2.6063    0.0114 O   0  0  0  0  0  0  0  0  0  0  0  0
    4.6881   -0.0488    0.7171 C   0  0  0  0  0  0  0  0  0  0  0  0
    4.6364    0.6964    1.8723 C   0  0  0  0  0  0  0  0  0  0  0  0
    5.1420    1.9803    1.9840 C   0  0  0  0  0  0  0  0  0  0  0  0
    5.7270    2.5219    0.8567 C   0  0  0  0  0  0  0  0  0  0  0  0
    5.7853    1.7896   -0.3075 C   0  0  0  0  0  0  0  0  0  0  0  0
    5.2772    0.5272   -0.3866 C   0  0  0  0  0  0  0  0  0  0  0  0
    6.3043    3.8814    0.9399 C   0  0  0  0  0  0  0  0  0  0  0  0
    7.4195    3.7979    1.7696 F   0  0  0  0  0  0  0  0  0  0  0  0
    6.6988    4.2611   -0.3180 F   0  0  0  0  0  0  0  0  0  0  0  0
    5.4233    4.7700    1.5110 F   0  0  0  0  0  0  0  0  0  0  0  0
    0.5885   -0.8892   -0.5717 C   0  0  0  0  0  0  0  0  0  0  0  0
    0.2098    0.1887   -1.3260 C   0  0  0  0  0  0  0  0  0  0  0  0
   -1.0239    0.8291   -1.2032 C   0  0  0  0  0  0  0  0  0  0  0  0
   -1.9343    0.3802   -0.2849 C   0  0  0  0  0  0  0  0  0  0  0  0
   -1.5590   -0.7190    0.4944 C   0  0  0  0  0  0  0  0  0  0  0  0
   -0.3409   -1.3388    0.3629 C   0  0  0  0  0  0  0  0  0  0  0  0
   -3.2750    0.9638   -0.1028 C   0  0  0  0  0  0  0  0  0  0  0  0
   -3.9300    0.5521    0.8973 O   0  0  0  0  0  0  0  0  0  0  0  0
   -3.7983    1.9117   -0.9738 N   0  0  0  0  0  0  0  0  0  0  0  0
   -5.3767    2.5643   -0.7633 S   0  0  0  0  0  0  0  0  0  0  0  0
   -6.0890    2.7092   -2.0772 O   0  0  0  0  0  0  0  0  0  0  0  0
   -5.3052    3.9183   -0.0880 O   0  0  0  0  0  0  0  0  0  0  0  0
   -6.3218    1.5462    0.2697 C   0  0  0  0  0  0  0  0  0  0  0  0
   -6.9222    0.3976   -0.2321 C   0  0  0  0  0  0  0  0  0  0  0  0
   -7.6753   -0.3917    0.5899 C   0  0  0  0  0  0  0  0  0  0  0  0
   -7.8881   -0.1217    1.9096 C   0  0  0  0  0  0  0  0  0  0  0  0
   -8.6562   -0.9405    2.6909 F   0  0  0  0  0  0  0  0  0  0  0  0
   -7.3008    1.0140    2.4263 C   0  0  0  0  0  0  0  0  0  0  0  0
   -6.5377    1.8250    1.6251 C   0  0  0  0  0  0  0  0  0  0  0  0
    3.5979   -2.5922   -2.4103 H   0  0  0  0  0  0  0  0  0  0  0  0
    2.6665   -3.9133   -3.1464 H   0  0  0  0  0  0  0  0  0  0  0  0
    3.2812   -4.2123   -1.5220 H   0  0  0  0  0  0  0  0  0  0  0  0
    1.1058   -2.3995   -2.5855 H   0  0  0  0  0  0  0  0  0  0  0  0
   -0.3556   -3.5521   -1.0139 H   0  0  0  0  0  0  0  0  0  0  0  0
    1.0295   -3.9807    0.0253 H   0  0  0  0  0  0  0  0  0  0  0  0
    0.7651   -4.7598   -1.6230 H   0  0  0  0  0  0  0  0  0  0  0  0
    2.5218   -0.9392   -1.4555 H   0  0  0  0  0  0  0  0  0  0  0  0
    1.9258   -1.5774    1.2111 H   0  0  0  0  0  0  0  0  0  0  0  0
    4.1813    0.3062    2.7884 H   0  0  0  0  0  0  0  0  0  0  0  0
    5.0712    2.5328    2.9285 H   0  0  0  0  0  0  0  0  0  0  0  0
    6.2625    2.2790   -1.1579 H   0  0  0  0  0  0  0  0  0  0  0  0
    5.3236   -0.0482   -1.2911 H   0  0  0  0  0  0  0  0  0  0  0  0
    0.8786    0.5974   -2.0644 H   0  0  0  0  0  0  0  0  0  0  0  0
   -1.2892    1.6793   -1.8180 H   0  0  0  0  0  0  0  0  0  0  0  0
   -2.2880   -1.0850    1.2349 H   0  0  0  0  0  0  0  0  0  0  0  0
   -0.1400   -2.1722    1.0185 H   0  0  0  0  0  0  0  0  0  0  0  0
   -3.2186    2.2558   -1.7959 H   0  0  0  0  0  0  0  0  0  0  0  0
   -6.7791    0.1647   -1.2805 H   0  0  0  0  0  0  0  0  0  0  0  0
   -8.1365   -1.2838    0.1809 H   0  0  0  0  0  0  0  0  0  0  0  0
   -7.4494    1.2525    3.4557 H   0  0  0  0  0  0  0  0  0  0  0  0
   -6.0521    2.7300    1.9744 H   0  0  0  0  0  0  0  0  0  0  0  0
  1  2  1  0
  2  3  1  0
  2  4  1  0
  4  5  1  0
  5  6  1  0
  6  7  2  0
  6  8  2  0
  6  9  1  0
  9 10  2  0
 10 11  1  0
 11 12  2  0
 12 13  1  0
 13 14  2  0
 12 15  1  0
 15 16  1  0
 15 17  1  0
 15 18  1  0
  4 19  1  0
 19 20  2  0
 20 21  1  0
 21 22  2  0
 22 23  1  0
 23 24  2  0
 22 25  1  0
 25 26  2  0
 25 27  1  0
 27 28  1  0
 28 29  2  0
 28 30  2  0
 28 31  1  0
 31 32  2  0
 32 33  1  0
 33 34  2  0
 34 35  1  0
 34 36  1  0
 36 37  2  0
 14  9  1  0
 24 19  1  0
 37 31  1  0
  1 38  1  0
  1 39  1  0
  1 40  1  0
  2 41  1  0
  3 42  1  0
  3 43  1  0
  3 44  1  0
  4 45  1  6
  5 46  1  0
 10 47  1  0
 11 48  1  0
 13 49  1  0
 14 50  1  0
 20 51  1  0
 21 52  1  0
 23 53  1  0
 24 54  1  0
 27 55  1  0
 32 56  1  0
 33 57  1  0
 36 58  1  0
 37 59  1  0
M  END
$$$$
[H]c1nc(N([H])c2c([H])c([H])c(N3C([H])([H])C([H])([H])OC([H])([H])C3([H])[H])c([H])c2[H])nc([H])c1C(=O)N([H])c1c([H])nc(N2C([H])([H])C([H])([H])N(C([H])([H])[H])C([H])([H])C2([H])[H])c([H])c1[H]
     RDKit          3D

 65 69  0  0  0  0  0  0  0  0999 V2000
   -9.4485   -0.7435   -1.3854 C   0  0  0  0  0  0  0  0  0  0  0  0
   -9.8951    0.6117   -1.2882 N   0  0  0  0  0  0  0  0  0  0  0  0
   -9.9456    1.0088    0.0960 C   0  0  0  0  0  0  0  0  0  0  0  0
   -8.5695    0.8111    0.7266 C   0  0  0  0  0  0  0  0  0  0  0  0
   -7.5425    1.2017   -0.2074 N   0  0  0  0  0  0  0  0  0  0  0  0
   -7.8453    1.9831   -1.3881 C   0  0  0  0  0  0  0  0  0  0  0  0
   -9.1143    1.5446   -2.0369 C   0  0  0  0  0  0  0  0  0  0  0  0
   -6.1936    0.8148    0.0306 C   0  0  0  0  0  0  0  0  0  0  0  0
   -5.8633    0.0815    1.1373 C   0  0  0  0  0  0  0  0  0  0  0  0
   -4.5291   -0.3028    1.3736 C   0  0  0  0  0  0  0  0  0  0  0  0
   -3.5307    0.0381    0.5174 C   0  0  0  0  0  0  0  0  0  0  0  0
   -2.1798   -0.2925    0.6547 N   0  0  0  0  0  0  0  0  0  0  0  0
   -1.5634   -1.0352    1.6597 C   0  0  0  0  0  0  0  0  0  0  0  0
   -2.1937   -1.5269    2.6222 O   0  0  0  0  0  0  0  0  0  0  0  0
   -0.1152   -1.3097    1.6807 C   0  0  0  0  0  0  0  0  0  0  0  0
    0.4266   -2.3348    2.4283 C   0  0  0  0  0  0  0  0  0  0  0  0
    1.7376   -2.5702    2.4418 N   0  0  0  0  0  0  0  0  0  0  0  0
    2.6451   -1.8238    1.7246 C   0  0  0  0  0  0  0  0  0  0  0  0
    4.0071   -2.1552    1.7751 N   0  0  0  0  0  0  0  0  0  0  0  0
    5.0506   -1.4871    1.1180 C   0  0  0  0  0  0  0  0  0  0  0  0
    5.0175   -0.1966    0.6554 C   0  0  0  0  0  0  0  0  0  0  0  0
    6.0923    0.3578    0.0000 C   0  0  0  0  0  0  0  0  0  0  0  0
    7.2574   -0.3334   -0.2328 C   0  0  0  0  0  0  0  0  0  0  0  0
    7.3201   -1.6317    0.2213 C   0  0  0  0  0  0  0  0  0  0  0  0
    6.2579   -2.1873    0.8714 C   0  0  0  0  0  0  0  0  0  0  0  0
    8.3626    0.2543   -0.8966 N   0  0  0  0  0  0  0  0  0  0  0  0
    8.4519    1.7027   -1.0424 C   0  0  0  0  0  0  0  0  0  0  0  0
    9.9014    2.0524   -0.7342 C   0  0  0  0  0  0  0  0  0  0  0  0
   10.5238    1.0502    0.0043 O   0  0  0  0  0  0  0  0  0  0  0  0
   10.6900   -0.1372   -0.6634 C   0  0  0  0  0  0  0  0  0  0  0  0
    9.4413   -0.5038   -1.4702 C   0  0  0  0  0  0  0  0  0  0  0  0
    2.1012   -0.8379    1.0092 N   0  0  0  0  0  0  0  0  0  0  0  0
    0.7806   -0.5579    0.9608 C   0  0  0  0  0  0  0  0  0  0  0  0
   -3.9245    0.7897   -0.6003 C   0  0  0  0  0  0  0  0  0  0  0  0
   -5.1962    1.1470   -0.8104 N   0  0  0  0  0  0  0  0  0  0  0  0
   -9.4894   -1.2682   -0.4150 H   0  0  0  0  0  0  0  0  0  0  0  0
   -8.4102   -0.8570   -1.7548 H   0  0  0  0  0  0  0  0  0  0  0  0
  -10.0957   -1.2925   -2.1015 H   0  0  0  0  0  0  0  0  0  0  0  0
  -10.2707    2.0612    0.1984 H   0  0  0  0  0  0  0  0  0  0  0  0
  -10.6862    0.3869    0.6355 H   0  0  0  0  0  0  0  0  0  0  0  0
   -8.5007   -0.2418    1.0520 H   0  0  0  0  0  0  0  0  0  0  0  0
   -8.5073    1.4812    1.6038 H   0  0  0  0  0  0  0  0  0  0  0  0
   -7.9505    3.0340   -1.0516 H   0  0  0  0  0  0  0  0  0  0  0  0
   -6.9798    1.9947   -2.0982 H   0  0  0  0  0  0  0  0  0  0  0  0
   -8.9174    1.2045   -3.0817 H   0  0  0  0  0  0  0  0  0  0  0  0
   -9.7684    2.4551   -2.1768 H   0  0  0  0  0  0  0  0  0  0  0  0
   -6.6375   -0.2093    1.8471 H   0  0  0  0  0  0  0  0  0  0  0  0
   -4.3426   -0.8736    2.2578 H   0  0  0  0  0  0  0  0  0  0  0  0
   -1.5095    0.0686   -0.1218 H   0  0  0  0  0  0  0  0  0  0  0  0
   -0.2853   -2.9326    3.0017 H   0  0  0  0  0  0  0  0  0  0  0  0
    4.2768   -2.9914    2.3696 H   0  0  0  0  0  0  0  0  0  0  0  0
    4.1444    0.4020    0.8189 H   0  0  0  0  0  0  0  0  0  0  0  0
    5.9801    1.3893   -0.3371 H   0  0  0  0  0  0  0  0  0  0  0  0
    8.2411   -2.2260    0.0616 H   0  0  0  0  0  0  0  0  0  0  0  0
    6.3137   -3.2269    1.2313 H   0  0  0  0  0  0  0  0  0  0  0  0
    8.1886    1.9548   -2.0863 H   0  0  0  0  0  0  0  0  0  0  0  0
    7.7957    2.2604   -0.3782 H   0  0  0  0  0  0  0  0  0  0  0  0
   10.4438    2.2376   -1.6706 H   0  0  0  0  0  0  0  0  0  0  0  0
    9.8976    2.9519   -0.0750 H   0  0  0  0  0  0  0  0  0  0  0  0
   11.5701   -0.0329   -1.3358 H   0  0  0  0  0  0  0  0  0  0  0  0
   10.9451   -0.9203    0.0752 H   0  0  0  0  0  0  0  0  0  0  0  0
    9.3258   -1.5816   -1.4561 H   0  0  0  0  0  0  0  0  0  0  0  0
    9.6168   -0.0949   -2.4957 H   0  0  0  0  0  0  0  0  0  0  0  0
    0.4068    0.2723    0.3526 H   0  0  0  0  0  0  0  0  0  0  0  0
   -3.2095    1.1124   -1.3419 H   0  0  0  0  0  0  0  0  0  0  0  0
  1  2  1  0
  2  3  1  0
  3  4  1  0
  4  5  1  0
  5  6  1  0
  6  7  1  0
  5  8  1  0
  8  9  2  0
  9 10  1  0
 10 11  2  0
 11 12  1  0
 12 13  1  0
 13 14  2  0
 13 15  1  0
 15 16  2  0
 16 17  1  0
 17 18  2  0
 18 19  1  0
 19 20  1  0
 20 21  2  0
 21 22  1  0
 22 23  2  0
 23 24  1  0
 24 25  2  0
 23 26  1  0
 26 27  1  0
 27 28  1  0
 28 29  1  0
 29 30  1  0
 30 31  1  0
 18 32  1  0
 32 33  2  0
 11 34  1  0
 34 35  2  0
  7  2  1  0
 35  8  1  0
 33 15  1  0
 25 20  1  0
 31 26  1  0
  1 36  1  0
  1 37  1  0
  1 38  1  0
  3 39  1  0
  3 40  1  0
  4 41  1  0
  4 42  1  0
  6 43  1  0
  6 44  1  0
  7 45  1  0
  7 46  1  0
  9 47  1  0
 10 48  1  0
 12 49  1  0
 16 50  1  0
 19 51  1  0
 21 52  1  0
 22 53  1  0
 24 54  1  0
 25 55  1  0
 27 56  1  0
 27 57  1  0
 28 58  1  0
 28 59  1  0
 30 60  1  0
 30 61  1  0
 31 62  1  0
 31 63  1  0
 33 64  1  0
 34 65  1  0
M  END
$$$$
[H]c1nc(N([H])c2c([H])c([H])c(N3C([H])([H])C([H])([H])C([H])(N4C([H])([H])C([H])([H])OC([H])([H])C4([H])[H])C([H])([H])C3([H])[H])c([H])c2OC([H])([H])[H])nc(N([H])c2c([H])c([H])c([H])c([H])c2S(=O)(=O)C([H])(C([H])([H])[H])C([H])([H])[H])c1Cl
     RDKit          3D

 78 82  0  0  0  0  0  0  0  0999 V2000
   -2.7990   -4.7366   -1.3510 C   0  0  0  0  0  0  0  0  0  0  0  0
   -1.4818   -4.2815   -1.0963 O   0  0  0  0  0  0  0  0  0  0  0  0
   -1.2626   -2.9268   -0.9115 C   0  0  0  0  0  0  0  0  0  0  0  0
   -2.2756   -1.9993   -0.9649 C   0  0  0  0  0  0  0  0  0  0  0  0
   -2.0617   -0.6368   -0.7804 C   0  0  0  0  0  0  0  0  0  0  0  0
   -0.7814   -0.2202   -0.5369 C   0  0  0  0  0  0  0  0  0  0  0  0
    0.2811   -1.1355   -0.4738 C   0  0  0  0  0  0  0  0  0  0  0  0
    0.0363   -2.4736   -0.6602 C   0  0  0  0  0  0  0  0  0  0  0  0
    1.0486   -3.4282   -0.5632 N   0  0  0  0  0  0  0  0  0  0  0  0
    2.4501   -3.2971   -0.5441 C   0  0  0  0  0  0  0  0  0  0  0  0
    3.1806   -4.4584   -0.3853 N   0  0  0  0  0  0  0  0  0  0  0  0
    4.4963   -4.5095   -0.3751 C   0  0  0  0  0  0  0  0  0  0  0  0
    5.2173   -3.3469   -0.5311 C   0  0  0  0  0  0  0  0  0  0  0  0
    6.9576   -3.3296   -0.5341 Cl  0  0  0  0  0  0  0  0  0  0  0  0
    4.5356   -2.1282   -0.6989 C   0  0  0  0  0  0  0  0  0  0  0  0
    5.3043   -0.9689   -0.8278 N   0  0  0  0  0  0  0  0  0  0  0  0
    4.9428    0.3708   -1.0715 C   0  0  0  0  0  0  0  0  0  0  0  0
    3.7071    0.7399   -1.5352 C   0  0  0  0  0  0  0  0  0  0  0  0
    3.4274    2.0598   -1.8188 C   0  0  0  0  0  0  0  0  0  0  0  0
    4.3635    3.0489   -1.6512 C   0  0  0  0  0  0  0  0  0  0  0  0
    5.6208    2.6944   -1.1820 C   0  0  0  0  0  0  0  0  0  0  0  0
    5.9101    1.3798   -0.8961 C   0  0  0  0  0  0  0  0  0  0  0  0
    7.5019    1.0371   -0.2945 S   0  0  0  0  0  0  0  0  0  0  0  0
    8.2978    0.1131   -1.1647 O   0  0  0  0  0  0  0  0  0  0  0  0
    8.2966    2.3490   -0.2987 O   0  0  0  0  0  0  0  0  0  0  0  0
    7.4681    0.4327    1.3549 C   0  0  0  0  0  0  0  0  0  0  0  0
    8.8634   -0.1388    1.7159 C   0  0  0  0  0  0  0  0  0  0  0  0
    7.0596    1.4683    2.3670 C   0  0  0  0  0  0  0  0  0  0  0  0
    3.1822   -2.2006   -0.6916 N   0  0  0  0  0  0  0  0  0  0  0  0
   -3.1115    0.3177   -0.8518 N   0  0  0  0  0  0  0  0  0  0  0  0
   -4.3569    0.0033   -1.5564 C   0  0  0  0  0  0  0  0  0  0  0  0
   -5.4456    0.9770   -1.1084 C   0  0  0  0  0  0  0  0  0  0  0  0
   -5.4163    1.0960    0.3875 C   0  0  0  0  0  0  0  0  0  0  0  0
   -4.1724    1.8834    0.7406 C   0  0  0  0  0  0  0  0  0  0  0  0
   -3.0537    1.6221   -0.2518 C   0  0  0  0  0  0  0  0  0  0  0  0
   -6.5566    1.8175    0.8825 N   0  0  0  0  0  0  0  0  0  0  0  0
   -6.4174    2.0469    2.3263 C   0  0  0  0  0  0  0  0  0  0  0  0
   -7.6213    2.8766    2.7374 C   0  0  0  0  0  0  0  0  0  0  0  0
   -8.8104    2.1862    2.5319 O   0  0  0  0  0  0  0  0  0  0  0  0
   -8.9221    1.9916    1.1601 C   0  0  0  0  0  0  0  0  0  0  0  0
   -7.7951    1.0731    0.7374 C   0  0  0  0  0  0  0  0  0  0  0  0
   -2.8361   -5.8616   -1.3099 H   0  0  0  0  0  0  0  0  0  0  0  0
   -3.1900   -4.3824   -2.3292 H   0  0  0  0  0  0  0  0  0  0  0  0
   -3.5377   -4.4041   -0.5867 H   0  0  0  0  0  0  0  0  0  0  0  0
   -3.2912   -2.3704   -1.1607 H   0  0  0  0  0  0  0  0  0  0  0  0
   -0.5304    0.8148   -0.3940 H   0  0  0  0  0  0  0  0  0  0  0  0
    1.2667   -0.7437   -0.2556 H   0  0  0  0  0  0  0  0  0  0  0  0
    0.7052   -4.4618   -0.4798 H   0  0  0  0  0  0  0  0  0  0  0  0
    5.0715   -5.4367   -0.2489 H   0  0  0  0  0  0  0  0  0  0  0  0
    6.3584   -1.1165   -0.7423 H   0  0  0  0  0  0  0  0  0  0  0  0
    2.9114   -0.0041   -1.7193 H   0  0  0  0  0  0  0  0  0  0  0  0
    2.4405    2.3544   -2.1905 H   0  0  0  0  0  0  0  0  0  0  0  0
    4.1803    4.0991   -1.8612 H   0  0  0  0  0  0  0  0  0  0  0  0
    6.3509    3.4879   -1.0554 H   0  0  0  0  0  0  0  0  0  0  0  0
    6.8109   -0.4447    1.4204 H   0  0  0  0  0  0  0  0  0  0  0  0
    8.9078   -1.1290    1.2165 H   0  0  0  0  0  0  0  0  0  0  0  0
    8.8703   -0.2948    2.7926 H   0  0  0  0  0  0  0  0  0  0  0  0
    9.6590    0.5303    1.3215 H   0  0  0  0  0  0  0  0  0  0  0  0
    6.3760    2.2282    1.9706 H   0  0  0  0  0  0  0  0  0  0  0  0
    8.0149    1.9242    2.7543 H   0  0  0  0  0  0  0  0  0  0  0  0
    6.5683    1.0168    3.2596 H   0  0  0  0  0  0  0  0  0  0  0  0
   -4.2295    0.1961   -2.6622 H   0  0  0  0  0  0  0  0  0  0  0  0
   -4.6789   -1.0320   -1.4555 H   0  0  0  0  0  0  0  0  0  0  0  0
   -6.3764    0.6017   -1.5329 H   0  0  0  0  0  0  0  0  0  0  0  0
   -5.2359    1.9773   -1.5346 H   0  0  0  0  0  0  0  0  0  0  0  0
   -5.4040    0.1109    0.8986 H   0  0  0  0  0  0  0  0  0  0  0  0
   -4.4001    2.9747    0.6779 H   0  0  0  0  0  0  0  0  0  0  0  0
   -3.8424    1.6927    1.7865 H   0  0  0  0  0  0  0  0  0  0  0  0
   -3.1634    2.3692   -1.0913 H   0  0  0  0  0  0  0  0  0  0  0  0
   -2.0806    1.8030    0.1914 H   0  0  0  0  0  0  0  0  0  0  0  0
   -6.4486    1.0642    2.8141 H   0  0  0  0  0  0  0  0  0  0  0  0
   -5.5199    2.6190    2.5767 H   0  0  0  0  0  0  0  0  0  0  0  0
   -7.6190    3.7806    2.0982 H   0  0  0  0  0  0  0  0  0  0  0  0
   -7.5723    3.1645    3.7921 H   0  0  0  0  0  0  0  0  0  0  0  0
   -8.6856    2.9938    0.6972 H   0  0  0  0  0  0  0  0  0  0  0  0
   -9.9176    1.6194    0.8580 H   0  0  0  0  0  0  0  0  0  0  0  0
   -7.9512    0.6460   -0.2539 H   0  0  0  0  0  0  0  0  0  0  0  0
   -7.7886    0.2449    1.4991 H   0  0  0  0  0  0  0  0  0  0  0  0
  1  2  1  0
  2  3  1  0
  3  4  2  0
  4  5  1  0
  5  6  2  0
  6  7  1  0
  7  8  2  0
  8  9  1  0
  9 10  1  0
 10 11  2  0
 11 12  1  0
 12 13  2  0
 13 14  1  0
 13 15  1  0
 15 16  1  0
 16 17  1  0
 17 18  2  0
 18 19  1  0
 19 20  2  0
 20 21  1  0
 21 22  2  0
 22 23  1  0
 23 24  2  0
 23 25  2  0
 23 26  1  0
 26 27  1  0
 26 28  1  0
 15 29  2  0
  5 30  1  0
 30 31  1  0
 31 32  1  0
 32 33  1  0
 33 34  1  0
 34 35  1  0
 33 36  1  0
 36 37  1  0
 37 38  1  0
 38 39  1  0
 39 40  1  0
 40 41  1  0
  8  3  1  0
 29 10  1  0
 35 30  1  0
 41 36  1  0
 22 17  1  0
  1 42  1  0
  1 43  1  0
  1 44  1  0
  4 45  1  0
  6 46  1  0
  7 47  1  0
  9 48  1  0
 12 49  1  0
 16 50  1  0
 18 51  1  0
 19 52  1  0
 20 53  1  0
 21 54  1  0
 26 55  1  0
 27 56  1  0
 27 57  1  0
 27 58  1  0
 28 59  1  0
 28 60  1  0
 28 61  1  0
 31 62  1  0
 31 63  1  0
 32 64  1  0
 32 65  1  0
 33 66  1  0
 34 67  1  0
 34 68  1  0
 35 69  1  0
 35 70  1  0
 37 71  1  0
 37 72  1  0
 38 73  1  0
 38 74  1  0
 40 75  1  0
 40 76  1  0
 41 77  1  0
 41 78  1  0
M  END
$$$$
[H]c1nc(N([H])c2c([H])c([H])c(N3C([H])([H])C([H])([H])N(C4([H])C([H])([H])OC4([H])[H])C([H])([H])C3([H])[H])c([H])c2OC([H])([H])[H])nc(N([H])c2c([H])c([H])c([H])c([H])c2S(=O)(=O)C([H])(C([H])([H])[H])C([H])([H])[H])c1Cl
     RDKit          3D

 72 76  0  0  0  0  0  0  0  0999 V2000
   -2.0825    3.5997   -0.8894 C   0  0  0  0  0  0  0  0  0  0  0  0
   -1.2634    2.4910   -0.5893 O   0  0  0  0  0  0  0  0  0  0  0  0
   -1.8832    1.3012   -0.1592 C   0  0  0  0  0  0  0  0  0  0  0  0
   -3.2442    1.2605   -0.0482 C   0  0  0  0  0  0  0  0  0  0  0  0
   -3.9015    0.1387    0.3625 C   0  0  0  0  0  0  0  0  0  0  0  0
   -3.1477   -0.9726    0.6685 C   0  0  0  0  0  0  0  0  0  0  0  0
   -1.7424   -0.9340    0.5550 C   0  0  0  0  0  0  0  0  0  0  0  0
   -1.0843    0.1731    0.1488 C   0  0  0  0  0  0  0  0  0  0  0  0
    0.2891    0.2829    0.0128 N   0  0  0  0  0  0  0  0  0  0  0  0
    1.2630   -0.6977    0.2440 C   0  0  0  0  0  0  0  0  0  0  0  0
    0.9676   -1.9231    0.6465 N   0  0  0  0  0  0  0  0  0  0  0  0
    1.9154   -2.8248    0.8499 C   0  0  0  0  0  0  0  0  0  0  0  0
    3.2335   -2.4932    0.6424 C   0  0  0  0  0  0  0  0  0  0  0  0
    4.4394   -3.6884    0.9172 Cl  0  0  0  0  0  0  0  0  0  0  0  0
    3.6067   -1.2112    0.2162 C   0  0  0  0  0  0  0  0  0  0  0  0
    4.9821   -0.9691    0.0220 N   0  0  0  0  0  0  0  0  0  0  0  0
    5.6381    0.2104   -0.3882 C   0  0  0  0  0  0  0  0  0  0  0  0
    4.9526    1.3847   -0.5955 C   0  0  0  0  0  0  0  0  0  0  0  0
    5.6846    2.5122   -0.9869 C   0  0  0  0  0  0  0  0  0  0  0  0
    7.0384    2.4676   -1.1625 C   0  0  0  0  0  0  0  0  0  0  0  0
    7.6897    1.2727   -0.9450 C   0  0  0  0  0  0  0  0  0  0  0  0
    7.0317    0.1287   -0.5603 C   0  0  0  0  0  0  0  0  0  0  0  0
    7.9314   -1.3438   -0.2989 S   0  0  0  0  0  0  0  0  0  0  0  0
    7.4772   -2.4579   -1.2316 O   0  0  0  0  0  0  0  0  0  0  0  0
    7.9103   -1.7823    1.1372 O   0  0  0  0  0  0  0  0  0  0  0  0
    9.6474   -1.0518   -0.6880 C   0  0  0  0  0  0  0  0  0  0  0  0
    9.8995   -0.8101   -2.1368 C   0  0  0  0  0  0  0  0  0  0  0  0
   10.4831   -2.2713   -0.2896 C   0  0  0  0  0  0  0  0  0  0  0  0
    2.5948   -0.3798    0.0397 N   0  0  0  0  0  0  0  0  0  0  0  0
   -5.3213    0.0620    0.4803 N   0  0  0  0  0  0  0  0  0  0  0  0
   -5.9991   -1.0708    1.0133 C   0  0  0  0  0  0  0  0  0  0  0  0
   -7.3503   -0.8374    1.5780 C   0  0  0  0  0  0  0  0  0  0  0  0
   -8.0052    0.3826    1.1622 N   0  0  0  0  0  0  0  0  0  0  0  0
   -7.5676    0.8522   -0.1061 C   0  0  0  0  0  0  0  0  0  0  0  0
   -6.0765    1.1970    0.0233 C   0  0  0  0  0  0  0  0  0  0  0  0
   -9.4123    0.1925    1.2936 C   0  0  0  0  0  0  0  0  0  0  0  0
  -10.3160    1.3172    0.9347 C   0  0  0  0  0  0  0  0  0  0  0  0
  -11.2438    0.3509    0.4757 O   0  0  0  0  0  0  0  0  0  0  0  0
  -10.1203   -0.4057    0.0892 C   0  0  0  0  0  0  0  0  0  0  0  0
   -1.5091    4.4101   -1.3776 H   0  0  0  0  0  0  0  0  0  0  0  0
   -2.6052    3.9841    0.0316 H   0  0  0  0  0  0  0  0  0  0  0  0
   -2.8485    3.2816   -1.6306 H   0  0  0  0  0  0  0  0  0  0  0  0
   -3.8682    2.1371   -0.2863 H   0  0  0  0  0  0  0  0  0  0  0  0
   -3.5849   -1.9028    1.0000 H   0  0  0  0  0  0  0  0  0  0  0  0
   -1.2602   -1.8542    0.8200 H   0  0  0  0  0  0  0  0  0  0  0  0
    0.6602    1.2516   -0.3138 H   0  0  0  0  0  0  0  0  0  0  0  0
    1.6264   -3.8253    1.1828 H   0  0  0  0  0  0  0  0  0  0  0  0
    5.6513   -1.7950    0.2151 H   0  0  0  0  0  0  0  0  0  0  0  0
    3.8747    1.4918   -0.4707 H   0  0  0  0  0  0  0  0  0  0  0  0
    5.0965    3.4204   -1.1393 H   0  0  0  0  0  0  0  0  0  0  0  0
    7.5636    3.3513   -1.4624 H   0  0  0  0  0  0  0  0  0  0  0  0
    8.7803    1.2970   -1.0918 H   0  0  0  0  0  0  0  0  0  0  0  0
   10.0846   -0.2228   -0.0985 H   0  0  0  0  0  0  0  0  0  0  0  0
   10.2368   -1.7303   -2.6303 H   0  0  0  0  0  0  0  0  0  0  0  0
   10.7088   -0.0411   -2.2896 H   0  0  0  0  0  0  0  0  0  0  0  0
    8.9995   -0.4710   -2.6925 H   0  0  0  0  0  0  0  0  0  0  0  0
   10.6386   -2.3212    0.8049 H   0  0  0  0  0  0  0  0  0  0  0  0
   11.4151   -2.2676   -0.8775 H   0  0  0  0  0  0  0  0  0  0  0  0
    9.8951   -3.1648   -0.5790 H   0  0  0  0  0  0  0  0  0  0  0  0
   -5.3644   -1.4688    1.8611 H   0  0  0  0  0  0  0  0  0  0  0  0
   -5.9823   -1.9212    0.2692 H   0  0  0  0  0  0  0  0  0  0  0  0
   -7.3985   -0.9434    2.6856 H   0  0  0  0  0  0  0  0  0  0  0  0
   -8.0158   -1.6706    1.1993 H   0  0  0  0  0  0  0  0  0  0  0  0
   -7.6380    0.0948   -0.9199 H   0  0  0  0  0  0  0  0  0  0  0  0
   -8.0652    1.8008   -0.3419 H   0  0  0  0  0  0  0  0  0  0  0  0
   -5.6873    1.5386   -0.9665 H   0  0  0  0  0  0  0  0  0  0  0  0
   -5.9174    2.0253    0.7418 H   0  0  0  0  0  0  0  0  0  0  0  0
   -9.6829   -0.2666    2.2504 H   0  0  0  0  0  0  0  0  0  0  0  0
  -10.7253    1.8827    1.8093 H   0  0  0  0  0  0  0  0  0  0  0  0
  -10.0496    1.9609    0.0981 H   0  0  0  0  0  0  0  0  0  0  0  0
   -9.6867   -0.0283   -0.8599 H   0  0  0  0  0  0  0  0  0  0  0  0
  -10.2562   -1.4858    0.0990 H   0  0  0  0  0  0  0  0  0  0  0  0
  1  2  1  0
  2  3  1  0
  3  4  2  0
  4  5  1  0
  5  6  2  0
  6  7  1  0
  7  8  2  0
  8  9  1  0
  9 10  1  0
 10 11  2  0
 11 12  1  0
 12 13  2  0
 13 14  1  0
 13 15  1  0
 15 16  1  0
 16 17  1  0
 17 18  2  0
 18 19  1  0
 19 20  2  0
 20 21  1  0
 21 22  2  0
 22 23  1  0
 23 24  2  0
 23 25  2  0
 23 26  1  0
 26 27  1  0
 26 28  1  0
 15 29  2  0
  5 30  1  0
 30 31  1  0
 31 32  1  0
 32 33  1  0
 33 34  1  0
 34 35  1  0
 33 36  1  0
 36 37  1  0
 37 38  1  0
 38 39  1  0
  8  3  1  0
 29 10  1  0
 35 30  1  0
 39 36  1  0
 22 17  1  0
  1 40  1  0
  1 41  1  0
  1 42  1  0
  4 43  1  0
  6 44  1  0
  7 45  1  0
  9 46  1  0
 12 47  1  0
 16 48  1  0
 18 49  1  0
 19 50  1  0
 20 51  1  0
 21 52  1  0
 26 53  1  0
 27 54  1  0
 27 55  1  0
 27 56  1  0
 28 57  1  0
 28 58  1  0
 28 59  1  0
 31 60  1  0
 31 61  1  0
 32 62  1  0
 32 63  1  0
 34 64  1  0
 34 65  1  0
 35 66  1  0
 35 67  1  0
 36 68  1  0
 37 69  1  0
 37 70  1  0
 39 71  1  0
 39 72  1  0
M  END
$$$$
[H]OC(=O)[C@]1([H])C([H])([H])C([H])([H])[C@@]2([H])[C@]3([H])C([H])([H])C([H])([H])C4=C([H])C(=O)C([H])([H])C([H])([H])[C@]4(C([H])([H])[H])[C@@]3([H])C([H])([H])C([H])([H])[C@@]21C([H])([H])[H]
     RDKit          3D

 51 54  0  0  0  0  0  0  0  0999 V2000
    1.9854   -0.0569    2.1443 C   0  0  0  0  0  0  0  0  0  0  0  0
    2.1955    0.3287    0.6945 C   0  0  2  0  0  0  0  0  0  0  0  0
    1.5284    1.6290    0.4060 C   0  0  0  0  0  0  0  0  0  0  0  0
    0.0516    1.5052    0.7000 C   0  0  0  0  0  0  0  0  0  0  0  0
   -0.6041    0.3789   -0.0315 C   0  0  1  0  0  0  0  0  0  0  0  0
    0.1277   -0.9403    0.1022 C   0  0  1  0  0  0  0  0  0  0  0  0
   -0.4460   -1.8932   -0.9272 C   0  0  0  0  0  0  0  0  0  0  0  0
   -1.9254   -2.0250   -0.8702 C   0  0  0  0  0  0  0  0  0  0  0  0
   -2.6568   -0.8243   -0.4404 C   0  0  0  0  0  0  0  0  0  0  0  0
   -3.9449   -0.7513   -0.8148 C   0  0  0  0  0  0  0  0  0  0  0  0
   -4.7839    0.3691   -0.4639 C   0  0  0  0  0  0  0  0  0  0  0  0
   -6.0147    0.4306   -0.7464 O   0  0  0  0  0  0  0  0  0  0  0  0
   -4.2073    1.5199    0.2628 C   0  0  0  0  0  0  0  0  0  0  0  0
   -2.7209    1.5864    0.1303 C   0  0  0  0  0  0  0  0  0  0  0  0
   -2.0364    0.2607    0.3623 C   0  0  2  0  0  0  0  0  0  0  0  0
   -2.2182   -0.1089    1.8160 C   0  0  0  0  0  0  0  0  0  0  0  0
    1.5341   -0.6882   -0.2386 C   0  0  2  0  0  0  0  0  0  0  0  0
    2.4784   -1.8396   -0.1018 C   0  0  0  0  0  0  0  0  0  0  0  0
    3.7780   -1.1296   -0.4360 C   0  0  0  0  0  0  0  0  0  0  0  0
    3.6212    0.2011    0.3153 C   0  0  1  0  0  0  0  0  0  0  0  0
    4.2177    1.3150   -0.4104 C   0  0  0  0  0  0  0  0  0  0  0  0
    3.8187    1.7600   -1.6685 O   0  0  0  0  0  0  0  0  0  0  0  0
    5.1904    1.9881    0.0812 O   0  0  0  0  0  0  0  0  0  0  0  0
    1.4848    0.7485    2.7205 H   0  0  0  0  0  0  0  0  0  0  0  0
    3.0079   -0.1302    2.6226 H   0  0  0  0  0  0  0  0  0  0  0  0
    1.5434   -1.0498    2.2793 H   0  0  0  0  0  0  0  0  0  0  0  0
    1.5848    1.8592   -0.6935 H   0  0  0  0  0  0  0  0  0  0  0  0
    1.9093    2.4858    0.9836 H   0  0  0  0  0  0  0  0  0  0  0  0
   -0.4125    2.4539    0.2955 H   0  0  0  0  0  0  0  0  0  0  0  0
   -0.1342    1.5356    1.7813 H   0  0  0  0  0  0  0  0  0  0  0  0
   -0.5789    0.6331   -1.1185 H   0  0  0  0  0  0  0  0  0  0  0  0
   -0.0761   -1.3628    1.0924 H   0  0  0  0  0  0  0  0  0  0  0  0
   -0.0658   -1.5401   -1.9225 H   0  0  0  0  0  0  0  0  0  0  0  0
    0.0136   -2.8864   -0.7414 H   0  0  0  0  0  0  0  0  0  0  0  0
   -2.2520   -2.9090   -0.2584 H   0  0  0  0  0  0  0  0  0  0  0  0
   -2.2741   -2.2779   -1.9143 H   0  0  0  0  0  0  0  0  0  0  0  0
   -4.3945   -1.5462   -1.4001 H   0  0  0  0  0  0  0  0  0  0  0  0
   -4.5569    1.4751    1.3131 H   0  0  0  0  0  0  0  0  0  0  0  0
   -4.6243    2.4465   -0.2165 H   0  0  0  0  0  0  0  0  0  0  0  0
   -2.3433    2.2787    0.9336 H   0  0  0  0  0  0  0  0  0  0  0  0
   -2.4366    2.0209   -0.8441 H   0  0  0  0  0  0  0  0  0  0  0  0
   -1.9031   -1.1506    1.9732 H   0  0  0  0  0  0  0  0  0  0  0  0
   -1.7992    0.6172    2.5166 H   0  0  0  0  0  0  0  0  0  0  0  0
   -3.3327   -0.1052    1.9947 H   0  0  0  0  0  0  0  0  0  0  0  0
    1.6082   -0.2873   -1.2529 H   0  0  0  0  0  0  0  0  0  0  0  0
    2.5198   -2.2287    0.9309 H   0  0  0  0  0  0  0  0  0  0  0  0
    2.2645   -2.6815   -0.7802 H   0  0  0  0  0  0  0  0  0  0  0  0
    4.6676   -1.6771   -0.1351 H   0  0  0  0  0  0  0  0  0  0  0  0
    3.7337   -0.9373   -1.5462 H   0  0  0  0  0  0  0  0  0  0  0  0
    4.2252    0.0392    1.2566 H   0  0  0  0  0  0  0  0  0  0  0  0
    3.6529    1.1612   -2.4501 H   0  0  0  0  0  0  0  0  0  0  0  0
  2  1  1  1
  2  3  1  0
  3  4  1  0
  4  5  1  0
  5  6  1  0
  6  7  1  0
  7  8  1  0
  8  9  1  0
  9 10  2  0
 10 11  1  0
 11 12  2  0
 11 13  1  0
 13 14  1  0
 14 15  1  0
 15 16  1  1
  6 17  1  0
 17 18  1  0
 18 19  1  0
 19 20  1  0
 20 21  1  0
 21 22  1  0
 21 23  2  0
 17  2  1  0
 20  2  1  0
 15  5  1  0
 15  9  1  0
  1 24  1  0
  1 25  1  0
  1 26  1  0
  3 27  1  0
  3 28  1  0
  4 29  1  0
  4 30  1  0
  5 31  1  6
  6 32  1  1
  7 33  1  0
  7 34  1  0
  8 35  1  0
  8 36  1  0
 10 37  1  0
 13 38  1  0
 13 39  1  0
 14 40  1  0
 14 41  1  0
 16 42  1  0
 16 43  1  0
 16 44  1  0
 17 45  1  6
 18 46  1  0
 18 47  1  0
 19 48  1  0
 19 49  1  0
 20 50  1  1
 22 51  1  0
M  END
$$$$
[H]C(=O)[C@@]([H])(N([H])C(=O)[C@@]([H])(N([H])C(=O)OC([H])([H])c1c([H])c([H])c([H])c([H])c1[H])C([H])([H])C([H])(C([H])([H])[H])C([H])([H])[H])C([H])([H])c1c([H])c([H])c([H])c([H])c1[H]
     RDKit          3D

 57 58  0  0  0  0  0  0  0  0999 V2000
   -1.7765   -1.4274    3.1513 C   0  0  0  0  0  0  0  0  0  0  0  0
   -1.4864   -1.0481    1.7065 C   0  0  0  0  0  0  0  0  0  0  0  0
   -2.2018   -2.0225    0.8071 C   0  0  0  0  0  0  0  0  0  0  0  0
   -0.0337   -0.9888    1.4542 C   0  0  0  0  0  0  0  0  0  0  0  0
    0.3043   -0.6030   -0.0338 C   0  0  2  0  0  0  0  0  0  0  0  0
    1.7455   -0.6086   -0.0147 N   0  0  0  0  0  0  0  0  0  0  0  0
    2.5753   -1.7397    0.0833 C   0  0  0  0  0  0  0  0  0  0  0  0
    2.1496   -2.9399    0.2019 O   0  0  0  0  0  0  0  0  0  0  0  0
    3.9752   -1.6186    0.0567 O   0  0  0  0  0  0  0  0  0  0  0  0
    4.8438   -2.7211    0.1748 C   0  0  0  0  0  0  0  0  0  0  0  0
    6.2657   -2.2964    0.0761 C   0  0  0  0  0  0  0  0  0  0  0  0
    7.2713   -3.1164    0.5290 C   0  0  0  0  0  0  0  0  0  0  0  0
    8.5644   -2.7256    0.4434 C   0  0  0  0  0  0  0  0  0  0  0  0
    8.9098   -1.5122   -0.0928 C   0  0  0  0  0  0  0  0  0  0  0  0
    7.9283   -0.6663   -0.5575 C   0  0  0  0  0  0  0  0  0  0  0  0
    6.6018   -1.0816   -0.4630 C   0  0  0  0  0  0  0  0  0  0  0  0
   -0.1855    0.8143   -0.1168 C   0  0  0  0  0  0  0  0  0  0  0  0
    0.7022    1.6133    0.3550 O   0  0  0  0  0  0  0  0  0  0  0  0
   -1.3966    1.1663   -0.6236 N   0  0  0  0  0  0  0  0  0  0  0  0
   -2.6176    1.5223   -1.1344 C   0  0  1  0  0  0  0  0  0  0  0  0
   -3.4995    2.2071   -0.0707 C   0  0  0  0  0  0  0  0  0  0  0  0
   -4.8081    2.6080   -0.6240 C   0  0  0  0  0  0  0  0  0  0  0  0
   -5.9041    1.7891   -0.6178 C   0  0  0  0  0  0  0  0  0  0  0  0
   -7.0925    2.2290   -1.1882 C   0  0  0  0  0  0  0  0  0  0  0  0
   -7.1654    3.5007   -1.7615 C   0  0  0  0  0  0  0  0  0  0  0  0
   -6.0738    4.3056   -1.7577 C   0  0  0  0  0  0  0  0  0  0  0  0
   -4.8903    3.8584   -1.1880 C   0  0  0  0  0  0  0  0  0  0  0  0
   -2.4791    2.3465   -2.3680 C   0  0  0  0  0  0  0  0  0  0  0  0
   -1.4134    2.6865   -2.8104 O   0  0  0  0  0  0  0  0  0  0  0  0
   -2.6351   -0.8656    3.5385 H   0  0  0  0  0  0  0  0  0  0  0  0
   -1.9751   -2.5089    3.2419 H   0  0  0  0  0  0  0  0  0  0  0  0
   -0.9038   -1.1771    3.8033 H   0  0  0  0  0  0  0  0  0  0  0  0
   -1.9322   -0.0249    1.5755 H   0  0  0  0  0  0  0  0  0  0  0  0
   -1.5111   -2.6612    0.2418 H   0  0  0  0  0  0  0  0  0  0  0  0
   -2.8684   -2.7034    1.3969 H   0  0  0  0  0  0  0  0  0  0  0  0
   -2.8296   -1.4447    0.0838 H   0  0  0  0  0  0  0  0  0  0  0  0
    0.3989   -0.1612    2.0696 H   0  0  0  0  0  0  0  0  0  0  0  0
    0.5099   -1.9079    1.7200 H   0  0  0  0  0  0  0  0  0  0  0  0
   -0.2035   -1.3472   -0.5931 H   0  0  0  0  0  0  0  0  0  0  0  0
    2.2188    0.3554   -0.0785 H   0  0  0  0  0  0  0  0  0  0  0  0
    4.5822   -3.5967   -0.4157 H   0  0  0  0  0  0  0  0  0  0  0  0
    4.7353   -3.0383    1.2612 H   0  0  0  0  0  0  0  0  0  0  0  0
    6.9904   -4.0644    0.9490 H   0  0  0  0  0  0  0  0  0  0  0  0
    9.3404   -3.3741    0.8002 H   0  0  0  0  0  0  0  0  0  0  0  0
    9.9515   -1.2046   -0.1514 H   0  0  0  0  0  0  0  0  0  0  0  0
    8.1736    0.2781   -0.9775 H   0  0  0  0  0  0  0  0  0  0  0  0
    5.7988   -0.4482   -0.8162 H   0  0  0  0  0  0  0  0  0  0  0  0
   -1.1380    2.4815   -0.3947 H   0  0  0  0  0  0  0  0  0  0  0  0
   -3.2788    0.6124   -1.3995 H   0  0  0  0  0  0  0  0  0  0  0  0
   -3.7235    1.4517    0.7414 H   0  0  0  0  0  0  0  0  0  0  0  0
   -3.0051    3.0604    0.4063 H   0  0  0  0  0  0  0  0  0  0  0  0
   -5.8710    0.7939   -0.1578 H   0  0  0  0  0  0  0  0  0  0  0  0
   -7.9778    1.6066   -1.2052 H   0  0  0  0  0  0  0  0  0  0  0  0
   -8.1111    3.8368   -2.2149 H   0  0  0  0  0  0  0  0  0  0  0  0
   -6.1202    5.3154   -2.1997 H   0  0  0  0  0  0  0  0  0  0  0  0
   -4.0414    4.5471   -1.2028 H   0  0  0  0  0  0  0  0  0  0  0  0
   -3.3872    2.6579   -2.9000 H   0  0  0  0  0  0  0  0  0  0  0  0
  1  2  1  0
  2  3  1  0
  2  4  1  0
  4  5  1  0
  5  6  1  0
  6  7  1  0
  7  8  2  0
  7  9  1  0
  9 10  1  0
 10 11  1  0
 11 12  2  0
 12 13  1  0
 13 14  2  0
 14 15  1  0
 15 16  2  0
  5 17  1  0
 17 18  2  0
 17 19  1  0
 19 20  1  0
 20 21  1  0
 21 22  1  0
 22 23  2  0
 23 24  1  0
 24 25  2  0
 25 26  1  0
 26 27  2  0
 20 28  1  0
 28 29  2  0
 16 11  1  0
 27 22  1  0
  1 30  1  0
  1 31  1  0
  1 32  1  0
  2 33  1  0
  3 34  1  0
  3 35  1  0
  3 36  1  0
  4 37  1  0
  4 38  1  0
  5 39  1  6
  6 40  1  0
 10 41  1  0
 10 42  1  0
 12 43  1  0
 13 44  1  0
 14 45  1  0
 15 46  1  0
 16 47  1  0
 19 48  1  0
 20 49  1  6
 21 50  1  0
 21 51  1  0
 23 52  1  0
 24 53  1  0
 25 54  1  0
 26 55  1  0
 27 56  1  0
 28 57  1  0
M  END
$$$$
[H]O[C@]1([H])[C@@]([H])(C([H])([H])OP(=O)(O[H])O[H])O[C@@]([H])(n2c([H])nc3c(N([H])[H])nc([H])nc32)[C@]1([H])O[H]
     RDKit          3D

 37 39  0  0  0  0  0  0  0  0999 V2000
   -6.0211    1.9756    0.8594 N   0  0  0  0  0  0  0  0  0  0  0  0
   -5.0748    1.2538    0.0905 C   0  0  0  0  0  0  0  0  0  0  0  0
   -5.2578    0.8694   -1.1829 N   0  0  0  0  0  0  0  0  0  0  0  0
   -4.3488    0.1843   -1.8990 C   0  0  0  0  0  0  0  0  0  0  0  0
   -3.1811   -0.1473   -1.3304 N   0  0  0  0  0  0  0  0  0  0  0  0
   -2.9234    0.1947   -0.0778 C   0  0  0  0  0  0  0  0  0  0  0  0
   -1.8353   -0.0201    0.7075 N   0  0  0  0  0  0  0  0  0  0  0  0
   -2.1271    0.5505    1.8894 C   0  0  0  0  0  0  0  0  0  0  0  0
   -3.3371    1.1003    1.8596 N   0  0  0  0  0  0  0  0  0  0  0  0
   -3.8640    0.8989    0.6504 C   0  0  0  0  0  0  0  0  0  0  0  0
   -0.6097   -0.6937    0.4210 C   0  0  2  0  0  0  0  0  0  0  0  0
    0.4598   -0.0503    1.0874 O   0  0  0  0  0  0  0  0  0  0  0  0
    1.5661   -0.6828    0.5295 C   0  0  2  0  0  0  0  0  0  0  0  0
    2.8486    0.0646    0.8258 C   0  0  0  0  0  0  0  0  0  0  0  0
    3.9454   -0.5778    0.2633 O   0  0  0  0  0  0  0  0  0  0  0  0
    5.3855    0.2125    0.5649 P   0  0  0  0  0  0  0  0  0  0  0  0
    6.5219   -0.9206    1.1082 O   0  0  0  0  0  0  0  0  0  0  0  0
    5.9767    1.0314   -0.8005 O   0  0  0  0  0  0  0  0  0  0  0  0
    5.1458    1.2045    1.6953 O   0  0  0  0  0  0  0  0  0  0  0  0
    1.2859   -0.5111   -0.9565 C   0  0  1  0  0  0  0  0  0  0  0  0
    1.9509   -1.4725   -1.7109 O   0  0  0  0  0  0  0  0  0  0  0  0
   -0.2265   -0.7010   -1.0267 C   0  0  1  0  0  0  0  0  0  0  0  0
   -0.5054   -1.9497   -1.5787 O   0  0  0  0  0  0  0  0  0  0  0  0
   -5.7942    2.8708    1.2960 H   0  0  0  0  0  0  0  0  0  0  0  0
   -6.9716    1.5626    0.9701 H   0  0  0  0  0  0  0  0  0  0  0  0
   -4.5862   -0.0873   -2.9349 H   0  0  0  0  0  0  0  0  0  0  0  0
   -1.4686    0.5659    2.7594 H   0  0  0  0  0  0  0  0  0  0  0  0
   -0.5812   -1.7492    0.8005 H   0  0  0  0  0  0  0  0  0  0  0  0
    1.6094   -1.7330    0.8212 H   0  0  0  0  0  0  0  0  0  0  0  0
    2.8347    1.0906    0.4598 H   0  0  0  0  0  0  0  0  0  0  0  0
    3.0194    0.0832    1.9260 H   0  0  0  0  0  0  0  0  0  0  0  0
    6.3982   -1.8059    0.7185 H   0  0  0  0  0  0  0  0  0  0  0  0
    6.6715    0.5339   -1.2724 H   0  0  0  0  0  0  0  0  0  0  0  0
    1.5778    0.5232   -1.2172 H   0  0  0  0  0  0  0  0  0  0  0  0
    1.9513   -1.1771   -2.6417 H   0  0  0  0  0  0  0  0  0  0  0  0
   -0.6194    0.1289   -1.6139 H   0  0  0  0  0  0  0  0  0  0  0  0
    0.1847   -2.6206   -1.3308 H   0  0  0  0  0  0  0  0  0  0  0  0
  1  2  1  0
  2  3  2  0
  3  4  1  0
  4  5  2  0
  5  6  1  0
  6  7  1  0
  7  8  1  0
  8  9  2  0
  9 10  1  0
  7 11  1  0
 11 12  1  0
 12 13  1  0
 13 14  1  0
 14 15  1  0
 15 16  1  0
 16 17  1  0
 16 18  1  0
 16 19  2  0
 13 20  1  0
 20 21  1  0
 20 22  1  0
 22 23  1  0
 10  2  1  0
 22 11  1  0
 10  6  2  0
  1 24  1  0
  1 25  1  0
  4 26  1  0
  8 27  1  0
 11 28  1  1
 13 29  1  6
 14 30  1  0
 14 31  1  0
 17 32  1  0
 18 33  1  0
 20 34  1  6
 21 35  1  0
 22 36  1  6
 23 37  1  0
M  END
$$$$
[H]c1c([H])c(-c2nc(-c3c([H])c([H])c(N4C([H])([H])C([H])([H])N(C([H])([H])[H])C([H])([H])C4([H])[H])c([H])c3[H])c([H])c(=O)n2[H])c([H])c([H])c1Cl
     RDKit          3D

 48 51  0  0  0  0  0  0  0  0999 V2000
    6.7989   -1.1237    1.4729 C   0  0  0  0  0  0  0  0  0  0  0  0
    6.1266   -0.7658    0.2697 N   0  0  0  0  0  0  0  0  0  0  0  0
    5.8402    0.6118    0.0999 C   0  0  0  0  0  0  0  0  0  0  0  0
    4.4467    0.9777   -0.2033 C   0  0  0  0  0  0  0  0  0  0  0  0
    3.4607   -0.0377   -0.0543 N   0  0  0  0  0  0  0  0  0  0  0  0
    3.7560   -1.4369    0.1906 C   0  0  0  0  0  0  0  0  0  0  0  0
    5.1729   -1.6836   -0.2158 C   0  0  0  0  0  0  0  0  0  0  0  0
    2.0853    0.3187   -0.1506 C   0  0  0  0  0  0  0  0  0  0  0  0
    1.0639   -0.5849    0.0480 C   0  0  0  0  0  0  0  0  0  0  0  0
   -0.2613   -0.2314   -0.0505 C   0  0  0  0  0  0  0  0  0  0  0  0
   -0.6350    1.0778   -0.3605 C   0  0  0  0  0  0  0  0  0  0  0  0
    0.3929    1.9584   -0.5536 C   0  0  0  0  0  0  0  0  0  0  0  0
    1.7221    1.6076   -0.4557 C   0  0  0  0  0  0  0  0  0  0  0  0
   -2.0507    1.4327   -0.4605 C   0  0  0  0  0  0  0  0  0  0  0  0
   -2.4692    2.7018   -0.7626 C   0  0  0  0  0  0  0  0  0  0  0  0
   -3.8119    3.0402   -0.8581 C   0  0  0  0  0  0  0  0  0  0  0  0
   -4.2062    4.1975   -1.1337 O   0  0  0  0  0  0  0  0  0  0  0  0
   -4.7134    2.0527   -0.6380 N   0  0  0  0  0  0  0  0  0  0  0  0
   -4.3425    0.8020   -0.3408 C   0  0  0  0  0  0  0  0  0  0  0  0
   -3.0131    0.5135   -0.2571 N   0  0  0  0  0  0  0  0  0  0  0  0
   -5.3225   -0.2700   -0.1017 C   0  0  0  0  0  0  0  0  0  0  0  0
   -6.6751   -0.1086   -0.1554 C   0  0  0  0  0  0  0  0  0  0  0  0
   -7.5779   -1.1366    0.0743 C   0  0  0  0  0  0  0  0  0  0  0  0
   -7.1171   -2.3989    0.3750 C   0  0  0  0  0  0  0  0  0  0  0  0
   -8.2195   -3.7297    0.6733 Cl  0  0  0  0  0  0  0  0  0  0  0  0
   -5.7525   -2.5812    0.4338 C   0  0  0  0  0  0  0  0  0  0  0  0
   -4.8610   -1.5567    0.2047 C   0  0  0  0  0  0  0  0  0  0  0  0
    7.1393   -0.2447    2.0282 H   0  0  0  0  0  0  0  0  0  0  0  0
    6.2372   -1.8589    2.1035 H   0  0  0  0  0  0  0  0  0  0  0  0
    7.7362   -1.6795    1.1767 H   0  0  0  0  0  0  0  0  0  0  0  0
    6.5400    1.0148   -0.6828 H   0  0  0  0  0  0  0  0  0  0  0  0
    6.1584    1.1419    1.0452 H   0  0  0  0  0  0  0  0  0  0  0  0
    4.1096    1.8514    0.4316 H   0  0  0  0  0  0  0  0  0  0  0  0
    4.3775    1.3567   -1.2564 H   0  0  0  0  0  0  0  0  0  0  0  0
    3.1287   -2.0962   -0.4812 H   0  0  0  0  0  0  0  0  0  0  0  0
    3.5611   -1.7597    1.2129 H   0  0  0  0  0  0  0  0  0  0  0  0
    5.2439   -1.7899   -1.3327 H   0  0  0  0  0  0  0  0  0  0  0  0
    5.4478   -2.7055    0.1706 H   0  0  0  0  0  0  0  0  0  0  0  0
    1.3193   -1.6059    0.2906 H   0  0  0  0  0  0  0  0  0  0  0  0
   -1.0339   -0.9724    0.1131 H   0  0  0  0  0  0  0  0  0  0  0  0
    0.1622    2.9822   -0.7953 H   0  0  0  0  0  0  0  0  0  0  0  0
    2.4579    2.3768   -0.6271 H   0  0  0  0  0  0  0  0  0  0  0  0
   -1.7424    3.4845   -0.9369 H   0  0  0  0  0  0  0  0  0  0  0  0
   -5.7543    2.2761   -0.7029 H   0  0  0  0  0  0  0  0  0  0  0  0
   -7.0872    0.8575   -0.3862 H   0  0  0  0  0  0  0  0  0  0  0  0
   -8.6312   -0.9583    0.0201 H   0  0  0  0  0  0  0  0  0  0  0  0
   -5.4119   -3.5994    0.6760 H   0  0  0  0  0  0  0  0  0  0  0  0
   -3.7955   -1.7180    0.2551 H   0  0  0  0  0  0  0  0  0  0  0  0
  1  2  1  0
  2  3  1  0
  3  4  1  0
  4  5  1  0
  5  6  1  0
  6  7  1  0
  5  8  1  0
  8  9  2  0
  9 10  1  0
 10 11  2  0
 11 12  1  0
 12 13  2  0
 11 14  1  0
 14 15  2  0
 15 16  1  0
 16 17  2  0
 16 18  1  0
 18 19  1  0
 19 20  2  0
 19 21  1  0
 21 22  2  0
 22 23  1  0
 23 24  2  0
 24 25  1  0
 24 26  1  0
 26 27  2  0
  7  2  1  0
 13  8  1  0
 20 14  1  0
 27 21  1  0
  1 28  1  0
  1 29  1  0
  1 30  1  0
  3 31  1  0
  3 32  1  0
  4 33  1  0
  4 34  1  0
  6 35  1  0
  6 36  1  0
  7 37  1  0
  7 38  1  0
  9 39  1  0
 10 40  1  0
 12 41  1  0
 13 42  1  0
 15 43  1  0
 18 44  1  0
 22 45  1  0
 23 46  1  0
 26 47  1  0
 27 48  1  0
M  END
$$$$
[H]N(C(=O)[C@]([H])(N([H])C(=O)[C@]([H])(N([H])C(=O)[C@@]([H])(C([H])([H])C([H])(C([H])([H])[H])C([H])([H])[H])C([H])(C([H])([H])[H])C([H])([H])[H])C([H])([H])C([H])(C([H])([H])[H])C([H])([H])[H])C([H])([H])C([H])(C([H])([H])[H])C([H])([H])[H])[C@]([H])(C(=O)N([H])[C@@]([H])(C(=O)N([H])[C@@]([H])(C([H])([H])C([H])(C([H])([H])[H])C([H])([H])[H])C(C([H])([H])[H])(C([H])([H])[H])C([H])([H])[H])C([H])([H])C([H])(C([H])([H])[H])C([H])([H])[H])C([H])([H])C([H])(C([H])([H])[H])C([H])([H])[H]
     RDKit          3D

133132  0  0  0  0  0  0  0  0999 V2000
   -9.8262    0.8448   -3.1405 C   0  0  0  0  0  0  0  0  0  0  0  0
   -8.4361    0.5383   -2.5401 C   0  0  0  0  0  0  0  0  0  0  0  0
   -8.6143   -0.7334   -1.7579 C   0  0  0  0  0  0  0  0  0  0  0  0
   -7.9802    1.7152   -1.7649 C   0  0  0  0  0  0  0  0  0  0  0  0
   -6.6693    1.6524   -1.0908 C   0  0  2  0  0  0  0  0  0  0  0  0
   -6.5070    0.6335   -0.0916 N   0  0  0  0  0  0  0  0  0  0  0  0
   -5.3485   -0.1815    0.0751 C   0  0  0  0  0  0  0  0  0  0  0  0
   -4.3973   -0.0278   -0.7014 O   0  0  0  0  0  0  0  0  0  0  0  0
   -5.3053   -1.2008    1.1988 C   0  0  1  0  0  0  0  0  0  0  0  0
   -5.9484   -2.4433    0.7710 C   0  0  0  0  0  0  0  0  0  0  0  0
   -6.1023   -3.5678    1.7270 C   0  0  0  0  0  0  0  0  0  0  0  0
   -6.8341   -4.7507    1.0313 C   0  0  0  0  0  0  0  0  0  0  0  0
   -4.8793   -4.1752    2.3259 C   0  0  0  0  0  0  0  0  0  0  0  0
   -3.9319   -1.2480    1.6671 N   0  0  0  0  0  0  0  0  0  0  0  0
   -2.8303   -1.8201    1.0797 C   0  0  0  0  0  0  0  0  0  0  0  0
   -3.1058   -2.4019   -0.0906 O   0  0  0  0  0  0  0  0  0  0  0  0
   -1.4533   -1.9372    1.4127 C   0  0  2  0  0  0  0  0  0  0  0  0
   -0.8862   -1.4425    2.6755 C   0  0  0  0  0  0  0  0  0  0  0  0
   -1.2788   -1.9961    3.9868 C   0  0  0  0  0  0  0  0  0  0  0  0
   -1.0702   -3.5036    4.1194 C   0  0  0  0  0  0  0  0  0  0  0  0
   -2.4105   -1.5057    4.7664 C   0  0  0  0  0  0  0  0  0  0  0  0
   -0.5891   -1.6880    0.2487 N   0  0  0  0  0  0  0  0  0  0  0  0
    0.4239   -0.7523    0.1258 C   0  0  0  0  0  0  0  0  0  0  0  0
    0.7235    0.0411    1.0342 O   0  0  0  0  0  0  0  0  0  0  0  0
    1.2130   -0.6652   -1.1328 C   0  0  1  0  0  0  0  0  0  0  0  0
    0.2954   -0.5397   -2.2882 C   0  0  0  0  0  0  0  0  0  0  0  0
    0.9745   -0.4401   -3.6310 C   0  0  0  0  0  0  0  0  0  0  0  0
    1.8056   -1.6525   -3.8983 C   0  0  0  0  0  0  0  0  0  0  0  0
   -0.1260   -0.2496   -4.6601 C   0  0  0  0  0  0  0  0  0  0  0  0
    2.2220    0.3786   -1.0373 N   0  0  0  0  0  0  0  0  0  0  0  0
    3.5256    0.1445   -0.6069 C   0  0  0  0  0  0  0  0  0  0  0  0
    3.8379   -1.0294   -0.2847 O   0  0  0  0  0  0  0  0  0  0  0  0
    4.5574    1.2428   -0.5140 C   0  0  1  0  0  0  0  0  0  0  0  0
    3.9264    2.3650    0.1962 C   0  0  0  0  0  0  0  0  0  0  0  0
    4.7061    3.6045    0.4271 C   0  0  0  0  0  0  0  0  0  0  0  0
    5.9324    3.4561    1.2563 C   0  0  0  0  0  0  0  0  0  0  0  0
    3.8229    4.7767    0.8399 C   0  0  0  0  0  0  0  0  0  0  0  0
    5.7599    0.6634    0.0403 N   0  0  0  0  0  0  0  0  0  0  0  0
    7.0128    0.6172   -0.6056 C   0  0  0  0  0  0  0  0  0  0  0  0
    7.0005    1.1850   -1.7656 O   0  0  0  0  0  0  0  0  0  0  0  0
    8.2623    0.0267   -0.1508 C   0  0  1  0  0  0  0  0  0  0  0  0
    9.4167    0.7660   -0.7794 C   0  0  0  0  0  0  0  0  0  0  0  0
   10.7753    0.2713   -0.4119 C   0  0  0  0  0  0  0  0  0  0  0  0
   11.0511   -1.1513   -0.7844 C   0  0  0  0  0  0  0  0  0  0  0  0
   11.7852    1.1550   -1.1154 C   0  0  0  0  0  0  0  0  0  0  0  0
    8.4166   -0.3916    1.2462 C   0  0  0  0  0  0  0  0  0  0  0  0
    8.2639    0.6148    2.3218 C   0  0  0  0  0  0  0  0  0  0  0  0
    7.4783   -1.5661    1.5346 C   0  0  0  0  0  0  0  0  0  0  0  0
   -6.3443    2.9801   -0.3854 C   0  0  0  0  0  0  0  0  0  0  0  0
   -7.3399    3.3399    0.6640 C   0  0  0  0  0  0  0  0  0  0  0  0
   -6.3565    4.0948   -1.4313 C   0  0  0  0  0  0  0  0  0  0  0  0
   -4.9665    2.9477    0.2278 C   0  0  0  0  0  0  0  0  0  0  0  0
  -10.3340   -0.0671   -3.4641 H   0  0  0  0  0  0  0  0  0  0  0  0
  -10.3921    1.3842   -2.3293 H   0  0  0  0  0  0  0  0  0  0  0  0
   -9.6519    1.6021   -3.9270 H   0  0  0  0  0  0  0  0  0  0  0  0
   -7.7323    0.3580   -3.3884 H   0  0  0  0  0  0  0  0  0  0  0  0
   -7.6719   -1.3236   -1.6948 H   0  0  0  0  0  0  0  0  0  0  0  0
   -9.4171   -1.3369   -2.2719 H   0  0  0  0  0  0  0  0  0  0  0  0
   -9.0150   -0.5213   -0.7413 H   0  0  0  0  0  0  0  0  0  0  0  0
   -8.1035    2.6217   -2.4079 H   0  0  0  0  0  0  0  0  0  0  0  0
   -8.7628    1.8822   -0.9560 H   0  0  0  0  0  0  0  0  0  0  0  0
   -5.8278    1.5319   -1.8305 H   0  0  0  0  0  0  0  0  0  0  0  0
   -7.3001    0.4648    0.5845 H   0  0  0  0  0  0  0  0  0  0  0  0
   -5.9699   -0.7443    1.9990 H   0  0  0  0  0  0  0  0  0  0  0  0
   -5.5032   -2.8495   -0.2046 H   0  0  0  0  0  0  0  0  0  0  0  0
   -7.0199   -2.2192    0.4151 H   0  0  0  0  0  0  0  0  0  0  0  0
   -6.7764   -3.2810    2.5764 H   0  0  0  0  0  0  0  0  0  0  0  0
   -6.7583   -5.5947    1.7231 H   0  0  0  0  0  0  0  0  0  0  0  0
   -6.2751   -4.9579    0.0980 H   0  0  0  0  0  0  0  0  0  0  0  0
   -7.8755   -4.4600    0.8179 H   0  0  0  0  0  0  0  0  0  0  0  0
   -5.1786   -5.1357    2.8783 H   0  0  0  0  0  0  0  0  0  0  0  0
   -4.4139   -3.5569    3.1037 H   0  0  0  0  0  0  0  0  0  0  0  0
   -4.1492   -4.5481    1.5641 H   0  0  0  0  0  0  0  0  0  0  0  0
   -3.7827   -0.7078    2.5709 H   0  0  0  0  0  0  0  0  0  0  0  0
   -1.2445   -3.1269    1.5174 H   0  0  0  0  0  0  0  0  0  0  0  0
   -0.9894   -0.3068    2.7653 H   0  0  0  0  0  0  0  0  0  0  0  0
    0.2631   -1.5310    2.6055 H   0  0  0  0  0  0  0  0  0  0  0  0
   -0.3359   -1.6469    4.6848 H   0  0  0  0  0  0  0  0  0  0  0  0
   -0.1256   -3.8271    3.6723 H   0  0  0  0  0  0  0  0  0  0  0  0
   -1.9594   -4.0075    3.6845 H   0  0  0  0  0  0  0  0  0  0  0  0
   -1.0655   -3.7351    5.2058 H   0  0  0  0  0  0  0  0  0  0  0  0
   -2.1978   -1.6106    5.8671 H   0  0  0  0  0  0  0  0  0  0  0  0
   -2.5589   -0.3984    4.5981 H   0  0  0  0  0  0  0  0  0  0  0  0
   -3.3525   -2.0191    4.5188 H   0  0  0  0  0  0  0  0  0  0  0  0
   -0.8203   -2.3393   -0.5687 H   0  0  0  0  0  0  0  0  0  0  0  0
    1.7847   -1.6380   -1.1539 H   0  0  0  0  0  0  0  0  0  0  0  0
   -0.4437   -1.3678   -2.2716 H   0  0  0  0  0  0  0  0  0  0  0  0
   -0.2918    0.4125   -2.1535 H   0  0  0  0  0  0  0  0  0  0  0  0
    1.5984    0.4763   -3.6470 H   0  0  0  0  0  0  0  0  0  0  0  0
    2.8922   -1.4743   -3.6525 H   0  0  0  0  0  0  0  0  0  0  0  0
    1.4452   -2.5149   -3.3000 H   0  0  0  0  0  0  0  0  0  0  0  0
    1.7809   -1.8505   -4.9991 H   0  0  0  0  0  0  0  0  0  0  0  0
   -1.0841    0.0809   -4.1768 H   0  0  0  0  0  0  0  0  0  0  0  0
   -0.2847   -1.1936   -5.2238 H   0  0  0  0  0  0  0  0  0  0  0  0
    0.1121    0.5746   -5.3754 H   0  0  0  0  0  0  0  0  0  0  0  0
    1.9131    1.3166   -1.3180 H   0  0  0  0  0  0  0  0  0  0  0  0
    4.8320    1.5725   -1.5567 H   0  0  0  0  0  0  0  0  0  0  0  0
    3.0263    2.6845   -0.4214 H   0  0  0  0  0  0  0  0  0  0  0  0
    3.4890    2.0505    1.1992 H   0  0  0  0  0  0  0  0  0  0  0  0
    5.0865    3.9201   -0.6054 H   0  0  0  0  0  0  0  0  0  0  0  0
    6.8516    3.4451    0.6759 H   0  0  0  0  0  0  0  0  0  0  0  0
    5.9201    4.2806    2.0149 H   0  0  0  0  0  0  0  0  0  0  0  0
    5.8273    2.5025    1.8322 H   0  0  0  0  0  0  0  0  0  0  0  0
    2.9528    4.3637    1.3666 H   0  0  0  0  0  0  0  0  0  0  0  0
    3.3999    5.2969   -0.0706 H   0  0  0  0  0  0  0  0  0  0  0  0
    4.3974    5.5261    1.4362 H   0  0  0  0  0  0  0  0  0  0  0  0
    5.6731    0.2585    0.9905 H   0  0  0  0  0  0  0  0  0  0  0  0
    8.3023   -0.9878   -0.7327 H   0  0  0  0  0  0  0  0  0  0  0  0
    9.3398    0.6887   -1.8920 H   0  0  0  0  0  0  0  0  0  0  0  0
    9.3498    1.8281   -0.5153 H   0  0  0  0  0  0  0  0  0  0  0  0
   11.0042    0.3741    0.6722 H   0  0  0  0  0  0  0  0  0  0  0  0
   11.9567   -1.2144   -1.4223 H   0  0  0  0  0  0  0  0  0  0  0  0
   10.2185   -1.5291   -1.4323 H   0  0  0  0  0  0  0  0  0  0  0  0
   11.2440   -1.8253    0.0758 H   0  0  0  0  0  0  0  0  0  0  0  0
   12.8123    0.9616   -0.7710 H   0  0  0  0  0  0  0  0  0  0  0  0
   11.6700    1.0766   -2.2096 H   0  0  0  0  0  0  0  0  0  0  0  0
   11.5658    2.2190   -0.8391 H   0  0  0  0  0  0  0  0  0  0  0  0
    9.4464   -0.8641    1.3198 H   0  0  0  0  0  0  0  0  0  0  0  0
    7.2638    0.5287    2.8459 H   0  0  0  0  0  0  0  0  0  0  0  0
    9.0121    0.3916    3.1235 H   0  0  0  0  0  0  0  0  0  0  0  0
    8.4661    1.6534    2.0165 H   0  0  0  0  0  0  0  0  0  0  0  0
    6.8392   -1.8044    0.6535 H   0  0  0  0  0  0  0  0  0  0  0  0
    8.0127   -2.4953    1.7858 H   0  0  0  0  0  0  0  0  0  0  0  0
    6.7895   -1.3455    2.3791 H   0  0  0  0  0  0  0  0  0  0  0  0
   -6.8321    4.0717    1.3556 H   0  0  0  0  0  0  0  0  0  0  0  0
   -7.5746    2.4710    1.3447 H   0  0  0  0  0  0  0  0  0  0  0  0
   -8.2436    3.8556    0.3140 H   0  0  0  0  0  0  0  0  0  0  0  0
   -6.3507    3.6788   -2.4511 H   0  0  0  0  0  0  0  0  0  0  0  0
   -7.2207    4.7863   -1.2539 H   0  0  0  0  0  0  0  0  0  0  0  0
   -5.4111    4.7050   -1.3493 H   0  0  0  0  0  0  0  0  0  0  0  0
   -4.1641    2.8384   -0.5398 H   0  0  0  0  0  0  0  0  0  0  0  0
   -4.8298    3.9767    0.6824 H   0  0  0  0  0  0  0  0  0  0  0  0
   -4.8978    2.2510    1.0662 H   0  0  0  0  0  0  0  0  0  0  0  0
  1  2  1  0
  2  3  1  0
  2  4  1  0
  4  5  1  0
  5  6  1  0
  6  7  1  0
  7  8  2  0
  7  9  1  0
  9 10  1  0
 10 11  1  0
 11 12  1  0
 11 13  1  0
  9 14  1  0
 14 15  1  0
 15 16  2  0
 15 17  1  0
 17 18  1  0
 18 19  1  0
 19 20  1  0
 19 21  1  0
 17 22  1  0
 22 23  1  0
 23 24  2  0
 23 25  1  0
 25 26  1  0
 26 27  1  0
 27 28  1  0
 27 29  1  0
 25 30  1  0
 30 31  1  0
 31 32  2  0
 31 33  1  0
 33 34  1  0
 34 35  1  0
 35 36  1  0
 35 37  1  0
 33 38  1  0
 38 39  1  0
 39 40  2  0
 39 41  1  0
 41 42  1  0
 42 43  1  0
 43 44  1  0
 43 45  1  0
 41 46  1  0
 46 47  1  0
 46 48  1  0
  5 49  1  0
 49 50  1  0
 49 51  1  0
 49 52  1  0
  1 53  1  0
  1 54  1  0
  1 55  1  0
  2 56  1  0
  3 57  1  0
  3 58  1  0
  3 59  1  0
  4 60  1  0
  4 61  1  0
  5 62  1  6
  6 63  1  0
  9 64  1  1
 10 65  1  0
 10 66  1  0
 11 67  1  0
 12 68  1  0
 12 69  1  0
 12 70  1  0
 13 71  1  0
 13 72  1  0
 13 73  1  0
 14 74  1  0
 17 75  1  1
 18 76  1  0
 18 77  1  0
 19 78  1  0
 20 79  1  0
 20 80  1  0
 20 81  1  0
 21 82  1  0
 21 83  1  0
 21 84  1  0
 22 85  1  0
 25 86  1  6
 26 87  1  0
 26 88  1  0
 27 89  1  0
 28 90  1  0
 28 91  1  0
 28 92  1  0
 29 93  1  0
 29 94  1  0
 29 95  1  0
 30 96  1  0
 33 97  1  6
 34 98  1  0
 34 99  1  0
 35100  1  0
 36101  1  0
 36102  1  0
 36103  1  0
 37104  1  0
 37105  1  0
 37106  1  0
 38107  1  0
 41108  1  6
 42109  1  0
 42110  1  0
 43111  1  0
 44112  1  0
 44113  1  0
 44114  1  0
 45115  1  0
 45116  1  0
 45117  1  0
 46118  1  0
 47119  1  0
 47120  1  0
 47121  1  0
 48122  1  0
 48123  1  0
 48124  1  0
 50125  1  0
 50126  1  0
 50127  1  0
 51128  1  0
 51129  1  0
 51130  1  0
 52131  1  0
 52132  1  0
 52133  1  0
M  END
$$$$
[H]O[C@]1([H])[C@@]([H])(C([H])([H])OP(=O)(O[H])OP(=O)(O[H])O[H])O[C@@]([H])(n2c([H])nc3c(N([H])[H])nc([H])nc32)[C@]1([H])O[H]
     RDKit          3D

 42 44  0  0  0  0  0  0  0  0999 V2000
   -5.5858    2.7066   -0.5194 N   0  0  0  0  0  0  0  0  0  0  0  0
   -5.1159    1.4760    0.0108 C   0  0  0  0  0  0  0  0  0  0  0  0
   -5.9272    0.4247    0.2437 N   0  0  0  0  0  0  0  0  0  0  0  0
   -5.4161   -0.7101    0.7468 C   0  0  0  0  0  0  0  0  0  0  0  0
   -4.1184   -0.8534    1.0342 N   0  0  0  0  0  0  0  0  0  0  0  0
   -3.2751    0.1579    0.8216 C   0  0  0  0  0  0  0  0  0  0  0  0
   -1.9283    0.3121    1.0108 N   0  0  0  0  0  0  0  0  0  0  0  0
   -1.6612    1.5620    0.6077 C   0  0  0  0  0  0  0  0  0  0  0  0
   -2.7578    2.1980    0.1783 N   0  0  0  0  0  0  0  0  0  0  0  0
   -3.7743    1.3333    0.3060 C   0  0  0  0  0  0  0  0  0  0  0  0
   -1.0158   -0.6848    1.5386 C   0  0  2  0  0  0  0  0  0  0  0  0
    0.2860   -0.2664    1.3491 O   0  0  0  0  0  0  0  0  0  0  0  0
    0.8174   -0.8342    0.2246 C   0  0  2  0  0  0  0  0  0  0  0  0
    1.6152    0.0755   -0.6428 C   0  0  0  0  0  0  0  0  0  0  0  0
    2.6843    0.5569    0.1452 O   0  0  0  0  0  0  0  0  0  0  0  0
    3.6621    1.6040   -0.7381 P   0  0  0  0  0  0  0  0  0  0  0  0
    2.8393    2.0329   -2.1655 O   0  0  0  0  0  0  0  0  0  0  0  0
    4.0290    2.8425    0.0398 O   0  0  0  0  0  0  0  0  0  0  0  0
    5.0668    0.8034   -1.1797 O   0  0  0  0  0  0  0  0  0  0  0  0
    5.7546   -0.0719    0.0759 P   0  0  0  0  0  0  0  0  0  0  0  0
    6.1093   -1.6329   -0.5025 O   0  0  0  0  0  0  0  0  0  0  0  0
    7.1822    0.6553    0.6227 O   0  0  0  0  0  0  0  0  0  0  0  0
    4.8417   -0.2329    1.2544 O   0  0  0  0  0  0  0  0  0  0  0  0
   -0.3642   -1.4766   -0.5192 C   0  0  1  0  0  0  0  0  0  0  0  0
    0.0318   -2.5060   -1.3242 O   0  0  0  0  0  0  0  0  0  0  0  0
   -1.0814   -1.9720    0.7467 C   0  0  1  0  0  0  0  0  0  0  0  0
   -0.2123   -2.8760    1.3444 O   0  0  0  0  0  0  0  0  0  0  0  0
   -5.9591    3.4149    0.1432 H   0  0  0  0  0  0  0  0  0  0  0  0
   -5.5492    2.8757   -1.5432 H   0  0  0  0  0  0  0  0  0  0  0  0
   -6.1422   -1.5102    0.9043 H   0  0  0  0  0  0  0  0  0  0  0  0
   -0.6671    2.0177    0.6238 H   0  0  0  0  0  0  0  0  0  0  0  0
   -1.2008   -0.8631    2.6232 H   0  0  0  0  0  0  0  0  0  0  0  0
    1.4363   -1.7120    0.5620 H   0  0  0  0  0  0  0  0  0  0  0  0
    1.9710   -0.3780   -1.5697 H   0  0  0  0  0  0  0  0  0  0  0  0
    1.0254    0.9763   -0.9057 H   0  0  0  0  0  0  0  0  0  0  0  0
    2.8340    1.2104   -2.7406 H   0  0  0  0  0  0  0  0  0  0  0  0
    6.1433   -1.6184   -1.5091 H   0  0  0  0  0  0  0  0  0  0  0  0
    7.7498   -0.0424    0.9997 H   0  0  0  0  0  0  0  0  0  0  0  0
   -0.9861   -0.7162   -0.9911 H   0  0  0  0  0  0  0  0  0  0  0  0
   -0.6865   -2.6783   -1.9848 H   0  0  0  0  0  0  0  0  0  0  0  0
   -2.0680   -2.3539    0.5546 H   0  0  0  0  0  0  0  0  0  0  0  0
   -0.5867   -3.2466    2.1815 H   0  0  0  0  0  0  0  0  0  0  0  0
  1  2  1  0
  2  3  2  0
  3  4  1  0
  4  5  2  0
  5  6  1  0
  6  7  1  0
  7  8  1  0
  8  9  2  0
  9 10  1  0
  7 11  1  0
 11 12  1  0
 12 13  1  0
 13 14  1  0
 14 15  1  0
 15 16  1  0
 16 17  1  0
 16 18  2  0
 16 19  1  0
 19 20  1  0
 20 21  1  0
 20 22  1  0
 20 23  2  0
 13 24  1  0
 24 25  1  0
 24 26  1  0
 26 27  1  0
 10  2  1  0
 26 11  1  0
 10  6  2  0
  1 28  1  0
  1 29  1  0
  4 30  1  0
  8 31  1  0
 11 32  1  1
 13 33  1  1
 14 34  1  0
 14 35  1  0
 17 36  1  0
 21 37  1  0
 22 38  1  0
 24 39  1  6
 25 40  1  0
 26 41  1  6
 27 42  1  0
M  END
$$$$
[H]c1c([H])c([H])c2c(c1[H])c1c3c(c4c5c([H])c([H])c([H])c([H])c5n5c4c1n2[C@@]1([H])O[C@@]5(C([H])([H])[H])[C@@]([H])(OC([H])([H])[H])[C@@]([H])(N([H])C([H])([H])[H])C1([H])[H])C([H])([H])N([H])C3=O
     RDKit          3D

 61 68  0  0  0  0  0  0  0  0999 V2000
   -4.6833   -2.4529   -1.1244 C   0  0  0  0  0  0  0  0  0  0  0  0
   -4.0387   -1.1797   -1.0019 N   0  0  0  0  0  0  0  0  0  0  0  0
   -3.0503   -1.2560    0.0116 C   0  0  1  0  0  0  0  0  0  0  0  0
   -1.9260   -2.2851   -0.3398 C   0  0  0  0  0  0  0  0  0  0  0  0
   -0.8121   -1.4828   -0.2846 C   0  0  2  0  0  0  0  0  0  0  0  0
   -1.0465   -0.5115   -1.2498 O   0  0  0  0  0  0  0  0  0  0  0  0
   -1.4741    0.6532   -0.5375 C   0  0  1  0  0  0  0  0  0  0  0  0
   -2.1106    1.4727   -1.6767 C   0  0  0  0  0  0  0  0  0  0  0  0
   -2.4668    0.1342    0.3802 C   0  0  1  0  0  0  0  0  0  0  0  0
   -3.6343    0.9414    0.2122 O   0  0  0  0  0  0  0  0  0  0  0  0
   -4.0599    1.5000    1.3895 C   0  0  0  0  0  0  0  0  0  0  0  0
   -0.2340    1.2623   -0.1071 N   0  0  0  0  0  0  0  0  0  0  0  0
   -0.0339    2.5787    0.0874 C   0  0  0  0  0  0  0  0  0  0  0  0
   -0.8817    3.6586    0.0907 C   0  0  0  0  0  0  0  0  0  0  0  0
   -0.3982    4.9552    0.3380 C   0  0  0  0  0  0  0  0  0  0  0  0
    0.9373    5.1915    0.5858 C   0  0  0  0  0  0  0  0  0  0  0  0
    1.8084    4.1099    0.5869 C   0  0  0  0  0  0  0  0  0  0  0  0
    1.2984    2.8545    0.3406 C   0  0  0  0  0  0  0  0  0  0  0  0
    1.9545    1.6737    0.3091 C   0  0  0  0  0  0  0  0  0  0  0  0
    3.2812    1.2312    0.4419 C   0  0  0  0  0  0  0  0  0  0  0  0
    4.4659    2.0568    0.7187 C   0  0  0  0  0  0  0  0  0  0  0  0
    5.5640    1.1224    0.7614 N   0  0  0  0  0  0  0  0  0  0  0  0
    5.0777   -0.2069    0.5141 C   0  0  0  0  0  0  0  0  0  0  0  0
    5.8654   -1.1675    0.5021 O   0  0  0  0  0  0  0  0  0  0  0  0
    3.6490   -0.0981    0.3198 C   0  0  0  0  0  0  0  0  0  0  0  0
    2.6968   -1.0703    0.0586 C   0  0  0  0  0  0  0  0  0  0  0  0
    2.6703   -2.4328   -0.0706 C   0  0  0  0  0  0  0  0  0  0  0  0
    3.6302   -3.3829   -0.0425 C   0  0  0  0  0  0  0  0  0  0  0  0
    3.2386   -4.7235   -0.2140 C   0  0  0  0  0  0  0  0  0  0  0  0
    1.9134   -5.0506   -0.4048 C   0  0  0  0  0  0  0  0  0  0  0  0
    0.9391   -4.0661   -0.4317 C   0  0  0  0  0  0  0  0  0  0  0  0
    1.3441   -2.7664   -0.2622 C   0  0  0  0  0  0  0  0  0  0  0  0
    0.5791   -1.6807   -0.2561 N   0  0  0  0  0  0  0  0  0  0  0  0
    1.4079   -0.6178   -0.0669 C   0  0  0  0  0  0  0  0  0  0  0  0
    1.0345    0.7277    0.0476 C   0  0  0  0  0  0  0  0  0  0  0  0
   -5.7524   -2.4030   -1.3916 H   0  0  0  0  0  0  0  0  0  0  0  0
   -4.6113   -3.0741   -0.2101 H   0  0  0  0  0  0  0  0  0  0  0  0
   -4.1814   -2.9884   -1.9790 H   0  0  0  0  0  0  0  0  0  0  0  0
   -4.7576   -0.4935   -0.6841 H   0  0  0  0  0  0  0  0  0  0  0  0
   -3.5108   -1.6231    0.9475 H   0  0  0  0  0  0  0  0  0  0  0  0
   -2.2159   -2.6681   -1.3383 H   0  0  0  0  0  0  0  0  0  0  0  0
   -1.9814   -3.1462    0.3591 H   0  0  0  0  0  0  0  0  0  0  0  0
   -0.9199   -1.0504    0.8123 H   0  0  0  0  0  0  0  0  0  0  0  0
   -3.0248    1.9872   -1.3773 H   0  0  0  0  0  0  0  0  0  0  0  0
   -1.3835    2.2127   -2.0584 H   0  0  0  0  0  0  0  0  0  0  0  0
   -2.2822    0.7631   -2.5197 H   0  0  0  0  0  0  0  0  0  0  0  0
   -2.2514    0.2094    1.4618 H   0  0  0  0  0  0  0  0  0  0  0  0
   -4.3215    0.7547    2.1656 H   0  0  0  0  0  0  0  0  0  0  0  0
   -3.2408    2.1853    1.7470 H   0  0  0  0  0  0  0  0  0  0  0  0
   -4.9164    2.1622    1.1548 H   0  0  0  0  0  0  0  0  0  0  0  0
   -1.9183    3.5518   -0.0804 H   0  0  0  0  0  0  0  0  0  0  0  0
   -1.0991    5.7718    0.3307 H   0  0  0  0  0  0  0  0  0  0  0  0
    1.3041    6.1848    0.7744 H   0  0  0  0  0  0  0  0  0  0  0  0
    2.8628    4.2784    0.7812 H   0  0  0  0  0  0  0  0  0  0  0  0
    4.6269    2.8692   -0.0183 H   0  0  0  0  0  0  0  0  0  0  0  0
    4.3531    2.4561    1.7621 H   0  0  0  0  0  0  0  0  0  0  0  0
    6.5610    1.3716    0.9443 H   0  0  0  0  0  0  0  0  0  0  0  0
    4.6675   -3.1672    0.1002 H   0  0  0  0  0  0  0  0  0  0  0  0
    4.0012   -5.4721   -0.1909 H   0  0  0  0  0  0  0  0  0  0  0  0
    1.5914   -6.0773   -0.5386 H   0  0  0  0  0  0  0  0  0  0  0  0
   -0.1048   -4.2874   -0.5799 H   0  0  0  0  0  0  0  0  0  0  0  0
  1  2  1  0
  2  3  1  0
  3  4  1  0
  4  5  1  0
  5  6  1  0
  6  7  1  0
  7  8  1  6
  7  9  1  0
  9 10  1  0
 10 11  1  0
  7 12  1  0
 12 13  1  0
 13 14  2  0
 14 15  1  0
 15 16  2  0
 16 17  1  0
 17 18  2  0
 18 19  1  0
 19 20  2  0
 20 21  1  0
 21 22  1  0
 22 23  1  0
 23 24  2  0
 23 25  1  0
 25 26  2  0
 26 27  1  0
 27 28  2  0
 28 29  1  0
 29 30  2  0
 30 31  1  0
 31 32  2  0
 32 33  1  0
 33 34  1  0
 34 35  2  0
  9  3  1  0
 35 12  1  0
 33  5  1  0
 18 13  1  0
 35 19  1  0
 25 20  1  0
 34 26  1  0
 32 27  1  0
  1 36  1  0
  1 37  1  0
  1 38  1  0
  2 39  1  0
  3 40  1  1
  4 41  1  0
  4 42  1  0
  5 43  1  1
  8 44  1  0
  8 45  1  0
  8 46  1  0
  9 47  1  1
 11 48  1  0
 11 49  1  0
 11 50  1  0
 14 51  1  0
 15 52  1  0
 16 53  1  0
 17 54  1  0
 21 55  1  0
 21 56  1  0
 22 57  1  0
 28 58  1  0
 29 59  1  0
 30 60  1  0
 31 61  1  0
M  END
$$$$
[H]C(=O)[C@@]([H])(N([H])C(=O)[C@@]([H])(N([H])C(=O)[C@@]([H])(N([H])C(=O)OC([H])([H])c1c([H])c([H])c([H])c([H])c1[H])C([H])([H])c1c([H])c([H])c([H])c([H])c1[H])C([H])([H])C([H])(C([H])([H])[H])C([H])([H])[H])C([H])([H])C([H])(C([H])([H])[H])C([H])([H])[H]
     RDKit          3D

 76 77  0  0  0  0  0  0  0  0999 V2000
   -5.2007    2.8782   -0.3952 C   0  0  0  0  0  0  0  0  0  0  0  0
   -6.1513    2.4313    0.6534 C   0  0  0  0  0  0  0  0  0  0  0  0
   -6.3463    3.6068    1.6355 C   0  0  0  0  0  0  0  0  0  0  0  0
   -5.7634    1.2676    1.4784 C   0  0  0  0  0  0  0  0  0  0  0  0
   -5.5328   -0.0360    0.8111 C   0  0  2  0  0  0  0  0  0  0  0  0
   -4.4791    0.0073   -0.1676 N   0  0  0  0  0  0  0  0  0  0  0  0
   -3.1919   -0.5257    0.0601 C   0  0  0  0  0  0  0  0  0  0  0  0
   -2.9060   -1.0737    1.1314 O   0  0  0  0  0  0  0  0  0  0  0  0
   -2.1604   -0.4127   -1.0277 C   0  0  2  0  0  0  0  0  0  0  0  0
   -2.7315   -0.8712   -2.3114 C   0  0  0  0  0  0  0  0  0  0  0  0
   -3.2424   -2.2724   -2.3587 C   0  0  0  0  0  0  0  0  0  0  0  0
   -3.8158   -2.5017   -3.7851 C   0  0  0  0  0  0  0  0  0  0  0  0
   -2.2145   -3.3498   -2.1833 C   0  0  0  0  0  0  0  0  0  0  0  0
   -0.8877   -0.9339   -0.6590 N   0  0  0  0  0  0  0  0  0  0  0  0
    0.1562   -0.0474   -0.2321 C   0  0  0  0  0  0  0  0  0  0  0  0
   -0.1549    1.1951   -0.2038 O   0  0  0  0  0  0  0  0  0  0  0  0
    1.5153   -0.4934    0.1646 C   0  0  2  0  0  0  0  0  0  0  0  0
    1.5972   -1.8851    0.6885 C   0  0  0  0  0  0  0  0  0  0  0  0
    2.9802   -2.2586    1.0842 C   0  0  0  0  0  0  0  0  0  0  0  0
    3.8556   -2.8177    0.1824 C   0  0  0  0  0  0  0  0  0  0  0  0
    5.1547   -3.1721    0.5670 C   0  0  0  0  0  0  0  0  0  0  0  0
    5.5649   -2.9605    1.8623 C   0  0  0  0  0  0  0  0  0  0  0  0
    4.6841   -2.3993    2.7628 C   0  0  0  0  0  0  0  0  0  0  0  0
    3.3912   -2.0482    2.3743 C   0  0  0  0  0  0  0  0  0  0  0  0
    2.1754    0.5019    0.9822 N   0  0  0  0  0  0  0  0  0  0  0  0
    3.2093    1.3443    0.4982 C   0  0  0  0  0  0  0  0  0  0  0  0
    3.5943    1.2571   -0.6878 O   0  0  0  0  0  0  0  0  0  0  0  0
    3.8264    2.2856    1.3074 O   0  0  0  0  0  0  0  0  0  0  0  0
    4.8370    3.1662    0.9513 C   0  0  0  0  0  0  0  0  0  0  0  0
    6.0752    2.5574    0.4584 C   0  0  0  0  0  0  0  0  0  0  0  0
    6.9213    1.7707    1.2134 C   0  0  0  0  0  0  0  0  0  0  0  0
    8.0858    1.2243    0.7004 C   0  0  0  0  0  0  0  0  0  0  0  0
    8.4363    1.4591   -0.6101 C   0  0  0  0  0  0  0  0  0  0  0  0
    7.6060    2.2489   -1.4033 C   0  0  0  0  0  0  0  0  0  0  0  0
    6.4579    2.7733   -0.8562 C   0  0  0  0  0  0  0  0  0  0  0  0
   -6.7377   -0.7515    0.3628 C   0  0  0  0  0  0  0  0  0  0  0  0
   -6.8160   -1.2782   -0.7269 O   0  0  0  0  0  0  0  0  0  0  0  0
   -5.1747    4.0081   -0.3864 H   0  0  0  0  0  0  0  0  0  0  0  0
   -4.1415    2.5853   -0.2232 H   0  0  0  0  0  0  0  0  0  0  0  0
   -5.5264    2.6369   -1.4318 H   0  0  0  0  0  0  0  0  0  0  0  0
   -7.1497    2.3236    0.1655 H   0  0  0  0  0  0  0  0  0  0  0  0
   -5.3970    4.1685    1.7844 H   0  0  0  0  0  0  0  0  0  0  0  0
   -6.6336    3.2156    2.6386 H   0  0  0  0  0  0  0  0  0  0  0  0
   -7.1327    4.2854    1.3030 H   0  0  0  0  0  0  0  0  0  0  0  0
   -4.8478    1.5408    2.0546 H   0  0  0  0  0  0  0  0  0  0  0  0
   -6.5611    1.1488    2.2628 H   0  0  0  0  0  0  0  0  0  0  0  0
   -5.0984   -0.7054    1.6495 H   0  0  0  0  0  0  0  0  0  0  0  0
   -4.6485    0.4405   -1.1302 H   0  0  0  0  0  0  0  0  0  0  0  0
   -2.0111    0.7422   -1.1706 H   0  0  0  0  0  0  0  0  0  0  0  0
   -1.8783   -0.8284   -3.0673 H   0  0  0  0  0  0  0  0  0  0  0  0
   -3.4779   -0.1519   -2.7407 H   0  0  0  0  0  0  0  0  0  0  0  0
   -4.0747   -2.4559   -1.6372 H   0  0  0  0  0  0  0  0  0  0  0  0
   -3.1965   -3.1963   -4.3614 H   0  0  0  0  0  0  0  0  0  0  0  0
   -3.8730   -1.5582   -4.3246 H   0  0  0  0  0  0  0  0  0  0  0  0
   -4.8339   -2.9200   -3.6940 H   0  0  0  0  0  0  0  0  0  0  0  0
   -2.0989   -3.6825   -1.1229 H   0  0  0  0  0  0  0  0  0  0  0  0
   -1.2559   -3.0232   -2.6344 H   0  0  0  0  0  0  0  0  0  0  0  0
   -2.5703   -4.2428   -2.7913 H   0  0  0  0  0  0  0  0  0  0  0  0
   -0.6448   -1.9324   -0.6596 H   0  0  0  0  0  0  0  0  0  0  0  0
    2.0824   -0.5133   -0.8329 H   0  0  0  0  0  0  0  0  0  0  0  0
    1.1792   -2.6392   -0.0126 H   0  0  0  0  0  0  0  0  0  0  0  0
    0.9843   -2.0207    1.6288 H   0  0  0  0  0  0  0  0  0  0  0  0
    3.6116   -3.0161   -0.8587 H   0  0  0  0  0  0  0  0  0  0  0  0
    5.8699   -3.6140   -0.1121 H   0  0  0  0  0  0  0  0  0  0  0  0
    6.5513   -3.2163    2.2004 H   0  0  0  0  0  0  0  0  0  0  0  0
    4.9825   -2.2176    3.8091 H   0  0  0  0  0  0  0  0  0  0  0  0
    2.7636   -1.6128    3.1412 H   0  0  0  0  0  0  0  0  0  0  0  0
    1.8948    0.6364    2.0013 H   0  0  0  0  0  0  0  0  0  0  0  0
    5.1057    3.7327    1.8971 H   0  0  0  0  0  0  0  0  0  0  0  0
    4.5167    3.9644    0.2506 H   0  0  0  0  0  0  0  0  0  0  0  0
    6.6784    1.5619    2.2477 H   0  0  0  0  0  0  0  0  0  0  0  0
    8.7609    0.6005    1.2887 H   0  0  0  0  0  0  0  0  0  0  0  0
    9.3175    1.0674   -1.0695 H   0  0  0  0  0  0  0  0  0  0  0  0
    7.8915    2.4320   -2.4436 H   0  0  0  0  0  0  0  0  0  0  0  0
    5.8347    3.3856   -1.5037 H   0  0  0  0  0  0  0  0  0  0  0  0
   -7.5901   -0.8157    1.0236 H   0  0  0  0  0  0  0  0  0  0  0  0
  1  2  1  0
  2  3  1  0
  2  4  1  0
  4  5  1  0
  5  6  1  0
  6  7  1  0
  7  8  2  0
  7  9  1  0
  9 10  1  0
 10 11  1  0
 11 12  1  0
 11 13  1  0
  9 14  1  0
 14 15  1  0
 15 16  2  0
 15 17  1  0
 17 18  1  0
 18 19  1  0
 19 20  2  0
 20 21  1  0
 21 22  2  0
 22 23  1  0
 23 24  2  0
 17 25  1  0
 25 26  1  0
 26 27  2  0
 26 28  1  0
 28 29  1  0
 29 30  1  0
 30 31  2  0
 31 32  1  0
 32 33  2  0
 33 34  1  0
 34 35  2  0
  5 36  1  0
 36 37  2  0
 24 19  1  0
 35 30  1  0
  1 38  1  0
  1 39  1  0
  1 40  1  0
  2 41  1  0
  3 42  1  0
  3 43  1  0
  3 44  1  0
  4 45  1  0
  4 46  1  0
  5 47  1  1
  6 48  1  0
  9 49  1  6
 10 50  1  0
 10 51  1  0
 11 52  1  0
 12 53  1  0
 12 54  1  0
 12 55  1  0
 13 56  1  0
 13 57  1  0
 13 58  1  0
 14 59  1  0
 17 60  1  6
 18 61  1  0
 18 62  1  0
 20 63  1  0
 21 64  1  0
 22 65  1  0
 23 66  1  0
 24 67  1  0
 25 68  1  0
 29 69  1  0
 29 70  1  0
 31 71  1  0
 32 72  1  0
 33 73  1  0
 34 74  1  0
 35 75  1  0
 36 76  1  0
M  END
$$$$
[H]c1nc(N([H])c2c([H])c([H])c(S(=O)(=O)C([H])([H])[H])c([H])c2[H])c2c([H])c(-c3c([H])c([H])c(N4C([H])([H])C([H])([H])N(C([H])([H])[H])C([H])([H])C4([H])[H])c([H])c3[H])n([H])c2n1
     RDKit          3D

 59 63  0  0  0  0  0  0  0  0999 V2000
   -9.0592    1.9790    0.4807 C   0  0  0  0  0  0  0  0  0  0  0  0
   -8.1501    1.0106    1.0618 N   0  0  0  0  0  0  0  0  0  0  0  0
   -6.9308    1.6661    1.3965 C   0  0  0  0  0  0  0  0  0  0  0  0
   -5.8683    0.6380    1.8156 C   0  0  0  0  0  0  0  0  0  0  0  0
   -5.5932   -0.1063    0.6170 N   0  0  0  0  0  0  0  0  0  0  0  0
   -6.6920   -0.5892   -0.1546 C   0  0  0  0  0  0  0  0  0  0  0  0
   -8.0424   -0.1155    0.2071 C   0  0  0  0  0  0  0  0  0  0  0  0
   -4.2580   -0.3520    0.2112 C   0  0  0  0  0  0  0  0  0  0  0  0
   -4.0523   -1.1183   -0.9401 C   0  0  0  0  0  0  0  0  0  0  0  0
   -2.7949   -1.3879   -1.3887 C   0  0  0  0  0  0  0  0  0  0  0  0
   -1.6649   -0.9344   -0.7541 C   0  0  0  0  0  0  0  0  0  0  0  0
   -1.8532   -0.1813    0.3767 C   0  0  0  0  0  0  0  0  0  0  0  0
   -3.1340    0.1053    0.8522 C   0  0  0  0  0  0  0  0  0  0  0  0
   -0.3207   -1.2168   -1.2303 C   0  0  0  0  0  0  0  0  0  0  0  0
    0.8634   -0.7899   -0.6576 C   0  0  0  0  0  0  0  0  0  0  0  0
    1.9310   -1.2473   -1.3858 C   0  0  0  0  0  0  0  0  0  0  0  0
    3.3229   -1.1133   -1.2589 C   0  0  0  0  0  0  0  0  0  0  0  0
    3.7996   -0.3765   -0.1548 N   0  0  0  0  0  0  0  0  0  0  0  0
    5.1562   -0.1067    0.1338 C   0  0  0  0  0  0  0  0  0  0  0  0
    6.1839   -0.1298   -0.7614 C   0  0  0  0  0  0  0  0  0  0  0  0
    7.5217    0.1220   -0.4108 C   0  0  0  0  0  0  0  0  0  0  0  0
    7.8377    0.4095    0.8936 C   0  0  0  0  0  0  0  0  0  0  0  0
    6.8165    0.4407    1.8214 C   0  0  0  0  0  0  0  0  0  0  0  0
    5.5187    0.1925    1.4633 C   0  0  0  0  0  0  0  0  0  0  0  0
    9.5001    0.7176    1.3310 S   0  0  0  0  0  0  0  0  0  0  0  0
    9.9373    2.4183    1.1969 C   0  0  0  0  0  0  0  0  0  0  0  0
   10.4283   -0.0739    0.4248 O   0  0  0  0  0  0  0  0  0  0  0  0
    9.7800    0.2186    2.7326 O   0  0  0  0  0  0  0  0  0  0  0  0
    4.0995   -1.7093   -2.1792 N   0  0  0  0  0  0  0  0  0  0  0  0
    3.5496   -2.4054   -3.1799 C   0  0  0  0  0  0  0  0  0  0  0  0
    2.2150   -2.5512   -3.3275 N   0  0  0  0  0  0  0  0  0  0  0  0
    1.3942   -1.9668   -2.4219 C   0  0  0  0  0  0  0  0  0  0  0  0
    0.0365   -1.9283   -2.2983 N   0  0  0  0  0  0  0  0  0  0  0  0
   -8.8649    3.0094    0.7948 H   0  0  0  0  0  0  0  0  0  0  0  0
  -10.1242    1.7628    0.7071 H   0  0  0  0  0  0  0  0  0  0  0  0
   -8.9840    1.9829   -0.6449 H   0  0  0  0  0  0  0  0  0  0  0  0
   -6.5566    2.1853    0.4937 H   0  0  0  0  0  0  0  0  0  0  0  0
   -7.0843    2.3198    2.2684 H   0  0  0  0  0  0  0  0  0  0  0  0
   -6.3940   -0.0556    2.5310 H   0  0  0  0  0  0  0  0  0  0  0  0
   -5.0435    1.1649    2.2729 H   0  0  0  0  0  0  0  0  0  0  0  0
   -6.5121   -0.2828   -1.2291 H   0  0  0  0  0  0  0  0  0  0  0  0
   -6.6089   -1.7122   -0.1668 H   0  0  0  0  0  0  0  0  0  0  0  0
   -8.7209    0.0212   -0.6907 H   0  0  0  0  0  0  0  0  0  0  0  0
   -8.5526   -0.9744    0.7497 H   0  0  0  0  0  0  0  0  0  0  0  0
   -4.9085   -1.5039   -1.4818 H   0  0  0  0  0  0  0  0  0  0  0  0
   -2.6729   -1.9882   -2.2900 H   0  0  0  0  0  0  0  0  0  0  0  0
   -1.0047    0.2135    0.9321 H   0  0  0  0  0  0  0  0  0  0  0  0
   -3.2202    0.7047    1.7517 H   0  0  0  0  0  0  0  0  0  0  0  0
    0.9325   -0.1836    0.2349 H   0  0  0  0  0  0  0  0  0  0  0  0
    3.0685    0.0129    0.5222 H   0  0  0  0  0  0  0  0  0  0  0  0
    6.0040   -0.3313   -1.8188 H   0  0  0  0  0  0  0  0  0  0  0  0
    8.3022    0.0933   -1.1480 H   0  0  0  0  0  0  0  0  0  0  0  0
    7.0533    0.6696    2.8653 H   0  0  0  0  0  0  0  0  0  0  0  0
    4.7037    0.2101    2.1700 H   0  0  0  0  0  0  0  0  0  0  0  0
   10.4575    2.7484    2.1356 H   0  0  0  0  0  0  0  0  0  0  0  0
    9.0685    3.0881    1.0728 H   0  0  0  0  0  0  0  0  0  0  0  0
   10.6031    2.5911    0.3106 H   0  0  0  0  0  0  0  0  0  0  0  0
    4.2025   -2.8686   -3.8994 H   0  0  0  0  0  0  0  0  0  0  0  0
   -0.6217   -2.3948   -2.9554 H   0  0  0  0  0  0  0  0  0  0  0  0
  1  2  1  0
  2  3  1  0
  3  4  1  0
  4  5  1  0
  5  6  1  0
  6  7  1  0
  5  8  1  0
  8  9  2  0
  9 10  1  0
 10 11  2  0
 11 12  1  0
 12 13  2  0
 11 14  1  0
 14 15  2  0
 15 16  1  0
 16 17  2  0
 17 18  1  0
 18 19  1  0
 19 20  2  0
 20 21  1  0
 21 22  2  0
 22 23  1  0
 23 24  2  0
 22 25  1  0
 25 26  1  0
 25 27  2  0
 25 28  2  0
 17 29  1  0
 29 30  2  0
 30 31  1  0
 31 32  2  0
 32 33  1  0
  7  2  1  0
 13  8  1  0
 33 14  1  0
 32 16  1  0
 24 19  1  0
  1 34  1  0
  1 35  1  0
  1 36  1  0
  3 37  1  0
  3 38  1  0
  4 39  1  0
  4 40  1  0
  6 41  1  0
  6 42  1  0
  7 43  1  0
  7 44  1  0
  9 45  1  0
 10 46  1  0
 12 47  1  0
 13 48  1  0
 15 49  1  0
 18 50  1  0
 20 51  1  0
 21 52  1  0
 23 53  1  0
 24 54  1  0
 26 55  1  0
 26 56  1  0
 26 57  1  0
 30 58  1  0
 33 59  1  0
M  END
$$$$
[H]c1c([H])c(S(=O)(=O)N2C([H])([H])C([H])([H])N(C(=O)c3c([H])c(C(F)(F)F)c([H])c(C(F)(F)F)c3[H])C([H])([H])C2([H])[H])c([H])c([H])c1OC([H])([H])[H]
     RDKit          3D

 51 53  0  0  0  0  0  0  0  0999 V2000
    8.6467   -0.7823    0.6316 C   0  0  0  0  0  0  0  0  0  0  0  0
    8.1444   -0.3776   -0.6314 O   0  0  0  0  0  0  0  0  0  0  0  0
    6.7750   -0.0851   -0.7961 C   0  0  0  0  0  0  0  0  0  0  0  0
    5.8790   -0.1678    0.2351 C   0  0  0  0  0  0  0  0  0  0  0  0
    4.5387    0.1312    0.0480 C   0  0  0  0  0  0  0  0  0  0  0  0
    4.1078    0.5252   -1.1973 C   0  0  0  0  0  0  0  0  0  0  0  0
    5.0728    0.6009   -2.2385 C   0  0  0  0  0  0  0  0  0  0  0  0
    6.4043    0.3038   -2.0584 C   0  0  0  0  0  0  0  0  0  0  0  0
    2.5096    1.0163   -1.5716 S   0  0  0  0  0  0  0  0  0  0  0  0
    2.2418    0.3853   -2.9987 O   0  0  0  0  0  0  0  0  0  0  0  0
    2.5046    2.5134   -1.9185 O   0  0  0  0  0  0  0  0  0  0  0  0
    1.2128    0.5576   -0.6552 N   0  0  0  0  0  0  0  0  0  0  0  0
    0.1950   -0.2187   -1.2579 C   0  0  0  0  0  0  0  0  0  0  0  0
   -1.1894    0.2147   -0.7652 C   0  0  0  0  0  0  0  0  0  0  0  0
   -1.2353    0.3630    0.6083 N   0  0  0  0  0  0  0  0  0  0  0  0
   -0.0483    0.4975    1.4259 C   0  0  0  0  0  0  0  0  0  0  0  0
    1.2476    0.4798    0.7477 C   0  0  0  0  0  0  0  0  0  0  0  0
   -2.4387    0.4263    1.4115 C   0  0  0  0  0  0  0  0  0  0  0  0
   -2.2795    0.7039    2.6146 O   0  0  0  0  0  0  0  0  0  0  0  0
   -3.7888    0.2031    0.9360 C   0  0  0  0  0  0  0  0  0  0  0  0
   -4.8212    0.9354    1.6011 C   0  0  0  0  0  0  0  0  0  0  0  0
   -6.1468    0.7815    1.3827 C   0  0  0  0  0  0  0  0  0  0  0  0
   -6.5301   -0.1678    0.4348 C   0  0  0  0  0  0  0  0  0  0  0  0
   -5.6090   -0.9000   -0.2261 C   0  0  0  0  0  0  0  0  0  0  0  0
   -4.2362   -0.6997    0.0373 C   0  0  0  0  0  0  0  0  0  0  0  0
   -6.0309   -1.9160   -1.2254 C   0  0  0  0  0  0  0  0  0  0  0  0
   -7.2826   -2.4134   -0.9888 F   0  0  0  0  0  0  0  0  0  0  0  0
   -6.0763   -1.2711   -2.4723 F   0  0  0  0  0  0  0  0  0  0  0  0
   -5.0931   -2.8960   -1.3173 F   0  0  0  0  0  0  0  0  0  0  0  0
   -7.1700    1.5921    2.0945 C   0  0  0  0  0  0  0  0  0  0  0  0
   -7.2215    2.8297    1.4512 F   0  0  0  0  0  0  0  0  0  0  0  0
   -6.7921    1.6922    3.4085 F   0  0  0  0  0  0  0  0  0  0  0  0
   -8.4354    1.0605    1.9947 F   0  0  0  0  0  0  0  0  0  0  0  0
    7.9912   -1.6053    0.9600 H   0  0  0  0  0  0  0  0  0  0  0  0
    9.6441   -1.2041    0.4852 H   0  0  0  0  0  0  0  0  0  0  0  0
    8.5940    0.0982    1.2754 H   0  0  0  0  0  0  0  0  0  0  0  0
    6.1979   -0.4620    1.2253 H   0  0  0  0  0  0  0  0  0  0  0  0
    3.8700    0.0739    0.9119 H   0  0  0  0  0  0  0  0  0  0  0  0
    4.7308    0.9015   -3.2361 H   0  0  0  0  0  0  0  0  0  0  0  0
    7.1207    0.3591   -2.8517 H   0  0  0  0  0  0  0  0  0  0  0  0
    0.1482    0.0160   -2.3177 H   0  0  0  0  0  0  0  0  0  0  0  0
    0.2746   -1.3024   -1.1583 H   0  0  0  0  0  0  0  0  0  0  0  0
   -1.8922   -0.4842   -1.2421 H   0  0  0  0  0  0  0  0  0  0  0  0
   -1.4627    1.2029   -1.2965 H   0  0  0  0  0  0  0  0  0  0  0  0
   -0.1423   -0.3094    2.2280 H   0  0  0  0  0  0  0  0  0  0  0  0
   -0.1228    1.4666    2.0290 H   0  0  0  0  0  0  0  0  0  0  0  0
    1.9210    1.2631    1.1552 H   0  0  0  0  0  0  0  0  0  0  0  0
    1.6973   -0.5389    1.0095 H   0  0  0  0  0  0  0  0  0  0  0  0
   -4.4780    1.6345    2.3331 H   0  0  0  0  0  0  0  0  0  0  0  0
   -7.5714   -0.2968    0.2634 H   0  0  0  0  0  0  0  0  0  0  0  0
   -3.5752   -1.3704   -0.5185 H   0  0  0  0  0  0  0  0  0  0  0  0
  1  2  1  0
  2  3  1  0
  3  4  2  0
  4  5  1  0
  5  6  2  0
  6  7  1  0
  7  8  2  0
  6  9  1  0
  9 10  2  0
  9 11  2  0
  9 12  1  0
 12 13  1  0
 13 14  1  0
 14 15  1  0
 15 16  1  0
 16 17  1  0
 15 18  1  0
 18 19  2  0
 18 20  1  0
 20 21  2  0
 21 22  1  0
 22 23  2  0
 23 24  1  0
 24 25  2  0
 24 26  1  0
 26 27  1  0
 26 28  1  0
 26 29  1  0
 22 30  1  0
 30 31  1  0
 30 32  1  0
 30 33  1  0
  8  3  1  0
 17 12  1  0
 25 20  1  0
  1 34  1  0
  1 35  1  0
  1 36  1  0
  4 37  1  0
  5 38  1  0
  7 39  1  0
  8 40  1  0
 13 41  1  0
 13 42  1  0
 14 43  1  0
 14 44  1  0
 16 45  1  0
 16 46  1  0
 17 47  1  0
 17 48  1  0
 21 49  1  0
 23 50  1  0
 25 51  1  0
M  END
$$$$
[H]C([H])=C([H])C(=O)N1C([H])([H])C([H])([H])C([H])([H])[C@]([H])(n2nc(-c3c([H])c([H])c(F)c([H])c3[H])c3c(N([H])[H])nc([H])nc32)C1([H])[H]
     RDKit          3D

 46 49  0  0  0  0  0  0  0  0999 V2000
   -3.9402    1.4974   -2.1739 N   0  0  0  0  0  0  0  0  0  0  0  0
   -2.5647    1.7322   -2.0398 C   0  0  0  0  0  0  0  0  0  0  0  0
   -1.8990    2.5645   -2.8768 N   0  0  0  0  0  0  0  0  0  0  0  0
   -0.5814    2.7746   -2.7921 C   0  0  0  0  0  0  0  0  0  0  0  0
    0.1566    2.1585   -1.8563 N   0  0  0  0  0  0  0  0  0  0  0  0
   -0.4474    1.3245   -1.0009 C   0  0  0  0  0  0  0  0  0  0  0  0
    0.0466    0.5686    0.0134 N   0  0  0  0  0  0  0  0  0  0  0  0
   -0.9379   -0.0968    0.5541 N   0  0  0  0  0  0  0  0  0  0  0  0
   -2.1104    0.1821   -0.0642 C   0  0  0  0  0  0  0  0  0  0  0  0
   -3.4036   -0.3960    0.2453 C   0  0  0  0  0  0  0  0  0  0  0  0
   -4.4302    0.4221    0.6359 C   0  0  0  0  0  0  0  0  0  0  0  0
   -5.6840   -0.0875    0.9184 C   0  0  0  0  0  0  0  0  0  0  0  0
   -5.9565   -1.4326    0.8216 C   0  0  0  0  0  0  0  0  0  0  0  0
   -7.1738   -1.9539    1.0925 F   0  0  0  0  0  0  0  0  0  0  0  0
   -4.8921   -2.2303    0.4241 C   0  0  0  0  0  0  0  0  0  0  0  0
   -3.6408   -1.7538    0.1376 C   0  0  0  0  0  0  0  0  0  0  0  0
   -1.8248    1.0790   -1.0555 C   0  0  0  0  0  0  0  0  0  0  0  0
    1.4533    0.5228    0.4164 C   0  0  1  0  0  0  0  0  0  0  0  0
    1.5976    0.7146    1.8949 C   0  0  0  0  0  0  0  0  0  0  0  0
    2.4932   -0.2580    2.5768 C   0  0  0  0  0  0  0  0  0  0  0  0
    3.6437   -0.7616    1.7645 C   0  0  0  0  0  0  0  0  0  0  0  0
    3.3949   -0.8197    0.3520 N   0  0  0  0  0  0  0  0  0  0  0  0
    1.9738   -0.8436   -0.0288 C   0  0  0  0  0  0  0  0  0  0  0  0
    4.3898   -0.8547   -0.6366 C   0  0  0  0  0  0  0  0  0  0  0  0
    4.0627   -0.9028   -1.8441 O   0  0  0  0  0  0  0  0  0  0  0  0
    5.7913   -0.8352   -0.2612 C   0  0  0  0  0  0  0  0  0  0  0  0
    6.7402   -0.8673   -1.1823 C   0  0  0  0  0  0  0  0  0  0  0  0
   -4.3235    0.5948   -2.5139 H   0  0  0  0  0  0  0  0  0  0  0  0
   -4.6151    2.2462   -1.9271 H   0  0  0  0  0  0  0  0  0  0  0  0
   -0.1315    3.4697   -3.5178 H   0  0  0  0  0  0  0  0  0  0  0  0
   -4.2920    1.5140    0.7576 H   0  0  0  0  0  0  0  0  0  0  0  0
   -6.4765    0.5951    1.2258 H   0  0  0  0  0  0  0  0  0  0  0  0
   -5.0875   -3.3065    0.3407 H   0  0  0  0  0  0  0  0  0  0  0  0
   -2.8225   -2.3924   -0.1713 H   0  0  0  0  0  0  0  0  0  0  0  0
    2.0121    1.2979   -0.1373 H   0  0  0  0  0  0  0  0  0  0  0  0
    1.9056    1.7734    2.0644 H   0  0  0  0  0  0  0  0  0  0  0  0
    0.5840    0.6252    2.3412 H   0  0  0  0  0  0  0  0  0  0  0  0
    1.9372   -1.1455    2.9536 H   0  0  0  0  0  0  0  0  0  0  0  0
    2.9132    0.2374    3.4787 H   0  0  0  0  0  0  0  0  0  0  0  0
    4.5556   -0.1107    1.9105 H   0  0  0  0  0  0  0  0  0  0  0  0
    3.9673   -1.7754    2.0812 H   0  0  0  0  0  0  0  0  0  0  0  0
    1.8402   -0.9181   -1.1131 H   0  0  0  0  0  0  0  0  0  0  0  0
    1.4462   -1.5953    0.5640 H   0  0  0  0  0  0  0  0  0  0  0  0
    6.0875   -0.7951    0.7660 H   0  0  0  0  0  0  0  0  0  0  0  0
    6.4526   -0.9083   -2.2199 H   0  0  0  0  0  0  0  0  0  0  0  0
    7.7903   -0.8534   -0.9182 H   0  0  0  0  0  0  0  0  0  0  0  0
  1  2  1  0
  2  3  2  0
  3  4  1  0
  4  5  2  0
  5  6  1  0
  6  7  1  0
  7  8  1  0
  8  9  2  0
  9 10  1  0
 10 11  2  0
 11 12  1  0
 12 13  2  0
 13 14  1  0
 13 15  1  0
 15 16  2  0
  9 17  1  0
  7 18  1  0
 18 19  1  0
 19 20  1  0
 20 21  1  0
 21 22  1  0
 22 23  1  0
 22 24  1  0
 24 25  2  0
 24 26  1  0
 26 27  2  3
 17  2  1  0
 23 18  1  0
 17  6  2  0
 16 10  1  0
  1 28  1  0
  1 29  1  0
  4 30  1  0
 11 31  1  0
 12 32  1  0
 15 33  1  0
 16 34  1  0
 18 35  1  6
 19 36  1  0
 19 37  1  0
 20 38  1  0
 20 39  1  0
 21 40  1  0
 21 41  1  0
 23 42  1  0
 23 43  1  0
 26 44  1  0
 27 45  1  0
 27 46  1  0
M  END
$$$$
[H]c1c([H])c([H])c(C([H])([H])OC(=O)N2C([H])([H])C([H])([H])N([C@]3([H])C([H])([H])C([H])([H])[C@]([H])(N([H])S(=O)(=O)c4c([H])c([H])c([H])c(OC([H])([H])[H])c4[H])C([H])([H])C3([H])[H])C([H])([H])C2([H])[H])c([H])c1[H]
     RDKit          3D

 67 70  0  0  0  0  0  0  0  0999 V2000
    8.4565   -2.5920   -2.2742 C   0  0  0  0  0  0  0  0  0  0  0  0
    8.5824   -2.2107   -0.9275 O   0  0  0  0  0  0  0  0  0  0  0  0
    7.8486   -1.1536   -0.3600 C   0  0  0  0  0  0  0  0  0  0  0  0
    8.0416   -0.8535    0.9798 C   0  0  0  0  0  0  0  0  0  0  0  0
    7.3217    0.1817    1.5317 C   0  0  0  0  0  0  0  0  0  0  0  0
    6.4255    0.9112    0.7788 C   0  0  0  0  0  0  0  0  0  0  0  0
    6.2572    0.5921   -0.5368 C   0  0  0  0  0  0  0  0  0  0  0  0
    6.9628   -0.4325   -1.1039 C   0  0  0  0  0  0  0  0  0  0  0  0
    5.1270    1.4984   -1.5094 S   0  0  0  0  0  0  0  0  0  0  0  0
    5.6138    1.6178   -2.9258 O   0  0  0  0  0  0  0  0  0  0  0  0
    5.0838    2.8967   -0.9487 O   0  0  0  0  0  0  0  0  0  0  0  0
    3.5666    0.7801   -1.5343 N   0  0  0  0  0  0  0  0  0  0  0  0
    2.9845    0.7237   -0.2163 C   0  0  1  0  0  0  0  0  0  0  0  0
    1.6758    1.4843   -0.1437 C   0  0  0  0  0  0  0  0  0  0  0  0
    1.0889    1.1962    1.2446 C   0  0  0  0  0  0  0  0  0  0  0  0
    0.4661   -0.1788    1.1886 C   0  0  2  0  0  0  0  0  0  0  0  0
    1.1962   -0.9912    0.1492 C   0  0  0  0  0  0  0  0  0  0  0  0
    2.6858   -0.7119    0.1981 C   0  0  0  0  0  0  0  0  0  0  0  0
   -0.9245   -0.0617    0.9530 N   0  0  0  0  0  0  0  0  0  0  0  0
   -1.6648    0.6032    1.9771 C   0  0  0  0  0  0  0  0  0  0  0  0
   -2.9225    1.1667    1.2965 C   0  0  0  0  0  0  0  0  0  0  0  0
   -3.5732    0.0636    0.6342 N   0  0  0  0  0  0  0  0  0  0  0  0
   -2.8320   -0.8400   -0.2153 C   0  0  0  0  0  0  0  0  0  0  0  0
   -1.6030   -1.2697    0.5981 C   0  0  0  0  0  0  0  0  0  0  0  0
   -4.9743   -0.1461    0.8160 C   0  0  0  0  0  0  0  0  0  0  0  0
   -5.6570    0.6282    1.5558 O   0  0  0  0  0  0  0  0  0  0  0  0
   -5.6445   -1.1852    0.2056 O   0  0  0  0  0  0  0  0  0  0  0  0
   -7.0214   -1.4293    0.3507 C   0  0  0  0  0  0  0  0  0  0  0  0
   -7.7800   -0.2622   -0.1592 C   0  0  0  0  0  0  0  0  0  0  0  0
   -7.2548    0.6264   -1.0601 C   0  0  0  0  0  0  0  0  0  0  0  0
   -8.0031    1.6853   -1.4956 C   0  0  0  0  0  0  0  0  0  0  0  0
   -9.2798    1.8544   -1.0277 C   0  0  0  0  0  0  0  0  0  0  0  0
   -9.8017    0.9625   -0.1257 C   0  0  0  0  0  0  0  0  0  0  0  0
   -9.0710   -0.1114    0.3290 C   0  0  0  0  0  0  0  0  0  0  0  0
    7.3860   -2.6090   -2.6213 H   0  0  0  0  0  0  0  0  0  0  0  0
    8.8048   -3.6449   -2.4285 H   0  0  0  0  0  0  0  0  0  0  0  0
    9.0327   -1.9784   -2.9742 H   0  0  0  0  0  0  0  0  0  0  0  0
    8.7467   -1.4265    1.5742 H   0  0  0  0  0  0  0  0  0  0  0  0
    7.4306    0.4679    2.5869 H   0  0  0  0  0  0  0  0  0  0  0  0
    5.8614    1.7375    1.2406 H   0  0  0  0  0  0  0  0  0  0  0  0
    6.8460   -0.7071   -2.1585 H   0  0  0  0  0  0  0  0  0  0  0  0
    3.6446   -0.2011   -1.8811 H   0  0  0  0  0  0  0  0  0  0  0  0
    3.6561    1.1597    0.5452 H   0  0  0  0  0  0  0  0  0  0  0  0
    1.8275    2.5807   -0.1959 H   0  0  0  0  0  0  0  0  0  0  0  0
    0.9666    1.2113   -0.9326 H   0  0  0  0  0  0  0  0  0  0  0  0
    1.9235    1.2436    1.9802 H   0  0  0  0  0  0  0  0  0  0  0  0
    0.3578    2.0090    1.4142 H   0  0  0  0  0  0  0  0  0  0  0  0
    0.7018   -0.6637    2.1839 H   0  0  0  0  0  0  0  0  0  0  0  0
    0.8559   -0.8234   -0.8717 H   0  0  0  0  0  0  0  0  0  0  0  0
    1.0778   -2.0612    0.4483 H   0  0  0  0  0  0  0  0  0  0  0  0
    3.0671   -0.9048    1.2285 H   0  0  0  0  0  0  0  0  0  0  0  0
    3.2043   -1.4009   -0.4816 H   0  0  0  0  0  0  0  0  0  0  0  0
   -1.1409    1.3440    2.5717 H   0  0  0  0  0  0  0  0  0  0  0  0
   -2.0876   -0.1938    2.6639 H   0  0  0  0  0  0  0  0  0  0  0  0
   -2.5370    1.9249    0.5688 H   0  0  0  0  0  0  0  0  0  0  0  0
   -3.5616    1.6119    2.0651 H   0  0  0  0  0  0  0  0  0  0  0  0
   -2.4230   -0.2331   -1.0555 H   0  0  0  0  0  0  0  0  0  0  0  0
   -3.4317   -1.6941   -0.5291 H   0  0  0  0  0  0  0  0  0  0  0  0
   -1.9930   -1.7431    1.5352 H   0  0  0  0  0  0  0  0  0  0  0  0
   -0.9898   -2.0018    0.0640 H   0  0  0  0  0  0  0  0  0  0  0  0
   -7.2075   -1.5718    1.4499 H   0  0  0  0  0  0  0  0  0  0  0  0
   -7.2956   -2.3604   -0.1775 H   0  0  0  0  0  0  0  0  0  0  0  0
   -6.2425    0.5056   -1.4420 H   0  0  0  0  0  0  0  0  0  0  0  0
   -7.6320    2.4188   -2.2105 H   0  0  0  0  0  0  0  0  0  0  0  0
   -9.9063    2.6918   -1.3561 H   0  0  0  0  0  0  0  0  0  0  0  0
  -10.8241    1.0893    0.2549 H   0  0  0  0  0  0  0  0  0  0  0  0
   -9.4956   -0.8193    1.0492 H   0  0  0  0  0  0  0  0  0  0  0  0
  1  2  1  0
  2  3  1  0
  3  4  2  0
  4  5  1  0
  5  6  2  0
  6  7  1  0
  7  8  2  0
  7  9  1  0
  9 10  2  0
  9 11  2  0
  9 12  1  0
 12 13  1  0
 13 14  1  0
 14 15  1  0
 15 16  1  0
 16 17  1  0
 17 18  1  0
 16 19  1  0
 19 20  1  0
 20 21  1  0
 21 22  1  0
 22 23  1  0
 23 24  1  0
 22 25  1  0
 25 26  2  0
 25 27  1  0
 27 28  1  0
 28 29  1  0
 29 30  2  0
 30 31  1  0
 31 32  2  0
 32 33  1  0
 33 34  2  0
  8  3  1  0
 18 13  1  0
 24 19  1  0
 34 29  1  0
  1 35  1  0
  1 36  1  0
  1 37  1  0
  4 38  1  0
  5 39  1  0
  6 40  1  0
  8 41  1  0
 12 42  1  0
 13 43  1  1
 14 44  1  0
 14 45  1  0
 15 46  1  0
 15 47  1  0
 16 48  1  1
 17 49  1  0
 17 50  1  0
 18 51  1  0
 18 52  1  0
 20 53  1  0
 20 54  1  0
 21 55  1  0
 21 56  1  0
 23 57  1  0
 23 58  1  0
 24 59  1  0
 24 60  1  0
 28 61  1  0
 28 62  1  0
 30 63  1  0
 31 64  1  0
 32 65  1  0
 33 66  1  0
 34 67  1  0
M  END
$$$$
[H]c1c([H])c([H])c(C([H])([H])OC(=O)N([H])[C@]([H])(C(=O)N([H])[C@]([H])(C(=O)N2C([H])([H])C([H])([H])OC([H])([H])C2([H])[H])C([H])([H])c2c([H])c([H])c([H])c([H])c2[H])C([H])([H])C([H])(C([H])([H])[H])C([H])([H])[H])c([H])c1[H]
     RDKit          3D

 70 72  0  0  0  0  0  0  0  0999 V2000
    2.7153   -5.5111   -0.5107 C   0  0  0  0  0  0  0  0  0  0  0  0
    3.0605   -4.1781   -1.1935 C   0  0  0  0  0  0  0  0  0  0  0  0
    4.4594   -3.8219   -0.7694 C   0  0  0  0  0  0  0  0  0  0  0  0
    2.0135   -3.1849   -0.8142 C   0  0  0  0  0  0  0  0  0  0  0  0
    2.1840   -1.8392   -1.4012 C   0  0  2  0  0  0  0  0  0  0  0  0
    3.3702   -1.1285   -1.1014 N   0  0  0  0  0  0  0  0  0  0  0  0
    3.4609   -0.2931    0.0394 C   0  0  0  0  0  0  0  0  0  0  0  0
    2.5419   -0.1088    0.8724 O   0  0  0  0  0  0  0  0  0  0  0  0
    4.6481    0.4131    0.3167 O   0  0  0  0  0  0  0  0  0  0  0  0
    4.8281    1.2593    1.4122 C   0  0  0  0  0  0  0  0  0  0  0  0
    3.9043    2.4088    1.4668 C   0  0  0  0  0  0  0  0  0  0  0  0
    4.0151    3.4249    0.5459 C   0  0  0  0  0  0  0  0  0  0  0  0
    3.1900    4.5171    0.5572 C   0  0  0  0  0  0  0  0  0  0  0  0
    2.1987    4.6346    1.5150 C   0  0  0  0  0  0  0  0  0  0  0  0
    2.0955    3.6019    2.4404 C   0  0  0  0  0  0  0  0  0  0  0  0
    2.9265    2.5032    2.4282 C   0  0  0  0  0  0  0  0  0  0  0  0
    0.9943   -0.9485   -1.2946 C   0  0  0  0  0  0  0  0  0  0  0  0
    1.1558    0.2827   -1.4743 O   0  0  0  0  0  0  0  0  0  0  0  0
   -0.2938   -1.4029   -1.0037 N   0  0  0  0  0  0  0  0  0  0  0  0
   -1.4494   -0.4995   -0.9058 C   0  0  1  0  0  0  0  0  0  0  0  0
   -2.4823   -1.0819   -1.8091 C   0  0  0  0  0  0  0  0  0  0  0  0
   -3.7569   -0.3813   -1.9041 C   0  0  0  0  0  0  0  0  0  0  0  0
   -4.7940   -0.6777   -1.0066 C   0  0  0  0  0  0  0  0  0  0  0  0
   -6.0030   -0.0298   -1.0957 C   0  0  0  0  0  0  0  0  0  0  0  0
   -6.1612    0.9130   -2.0880 C   0  0  0  0  0  0  0  0  0  0  0  0
   -5.1347    1.2101   -2.9806 C   0  0  0  0  0  0  0  0  0  0  0  0
   -3.9182    0.5635   -2.8969 C   0  0  0  0  0  0  0  0  0  0  0  0
   -1.8737   -0.3831    0.5138 C   0  0  0  0  0  0  0  0  0  0  0  0
   -1.7776   -1.4642    1.2078 O   0  0  0  0  0  0  0  0  0  0  0  0
   -2.3533    0.7514    1.1664 N   0  0  0  0  0  0  0  0  0  0  0  0
   -2.7378    0.6730    2.5574 C   0  0  0  0  0  0  0  0  0  0  0  0
   -4.0535    1.3923    2.7865 C   0  0  0  0  0  0  0  0  0  0  0  0
   -4.0214    2.6629    2.2530 O   0  0  0  0  0  0  0  0  0  0  0  0
   -2.8156    3.0096    1.6627 C   0  0  0  0  0  0  0  0  0  0  0  0
   -2.4640    2.0284    0.5203 C   0  0  0  0  0  0  0  0  0  0  0  0
    1.6412   -5.7044   -0.7252 H   0  0  0  0  0  0  0  0  0  0  0  0
    3.3477   -6.3306   -0.9231 H   0  0  0  0  0  0  0  0  0  0  0  0
    2.9461   -5.4286    0.5594 H   0  0  0  0  0  0  0  0  0  0  0  0
    3.1008   -4.3887   -2.2845 H   0  0  0  0  0  0  0  0  0  0  0  0
    4.9829   -4.7905   -0.5112 H   0  0  0  0  0  0  0  0  0  0  0  0
    5.0672   -3.4155   -1.6054 H   0  0  0  0  0  0  0  0  0  0  0  0
    4.4833   -3.2414    0.1529 H   0  0  0  0  0  0  0  0  0  0  0  0
    1.9116   -3.1995    0.2883 H   0  0  0  0  0  0  0  0  0  0  0  0
    1.0420   -3.6036   -1.2086 H   0  0  0  0  0  0  0  0  0  0  0  0
    2.2304   -2.0160   -2.5475 H   0  0  0  0  0  0  0  0  0  0  0  0
    4.2178   -1.1936   -1.7121 H   0  0  0  0  0  0  0  0  0  0  0  0
    4.6883    0.6706    2.3483 H   0  0  0  0  0  0  0  0  0  0  0  0
    5.8886    1.6465    1.3658 H   0  0  0  0  0  0  0  0  0  0  0  0
    4.7837    3.3909   -0.2434 H   0  0  0  0  0  0  0  0  0  0  0  0
    3.2855    5.3067   -0.1679 H   0  0  0  0  0  0  0  0  0  0  0  0
    1.5324    5.4590    1.5685 H   0  0  0  0  0  0  0  0  0  0  0  0
    1.3134    3.7005    3.1910 H   0  0  0  0  0  0  0  0  0  0  0  0
    2.7934    1.7333    3.1754 H   0  0  0  0  0  0  0  0  0  0  0  0
   -0.5222   -2.4003   -0.8373 H   0  0  0  0  0  0  0  0  0  0  0  0
   -1.1396    0.4894   -1.2517 H   0  0  0  0  0  0  0  0  0  0  0  0
   -1.9819   -1.1724   -2.8215 H   0  0  0  0  0  0  0  0  0  0  0  0
   -2.6406   -2.1578   -1.5188 H   0  0  0  0  0  0  0  0  0  0  0  0
   -4.6376   -1.4227   -0.2376 H   0  0  0  0  0  0  0  0  0  0  0  0
   -6.8357   -0.2136   -0.4377 H   0  0  0  0  0  0  0  0  0  0  0  0
   -7.1126    1.4421   -2.1805 H   0  0  0  0  0  0  0  0  0  0  0  0
   -5.2909    1.9596   -3.7576 H   0  0  0  0  0  0  0  0  0  0  0  0
   -3.1141    0.7875   -3.5852 H   0  0  0  0  0  0  0  0  0  0  0  0
   -1.9826    1.2454    3.1620 H   0  0  0  0  0  0  0  0  0  0  0  0
   -2.8131   -0.3602    2.9452 H   0  0  0  0  0  0  0  0  0  0  0  0
   -4.9130    0.7807    2.4309 H   0  0  0  0  0  0  0  0  0  0  0  0
   -4.1821    1.4768    3.8928 H   0  0  0  0  0  0  0  0  0  0  0  0
   -2.9817    3.9919    1.1663 H   0  0  0  0  0  0  0  0  0  0  0  0
   -1.9711    3.1139    2.3641 H   0  0  0  0  0  0  0  0  0  0  0  0
   -1.5070    2.4131    0.1053 H   0  0  0  0  0  0  0  0  0  0  0  0
   -3.3020    2.1161   -0.1713 H   0  0  0  0  0  0  0  0  0  0  0  0
  1  2  1  0
  2  3  1  0
  2  4  1  0
  4  5  1  0
  5  6  1  0
  6  7  1  0
  7  8  2  0
  7  9  1  0
  9 10  1  0
 10 11  1  0
 11 12  2  0
 12 13  1  0
 13 14  2  0
 14 15  1  0
 15 16  2  0
  5 17  1  0
 17 18  2  0
 17 19  1  0
 19 20  1  0
 20 21  1  0
 21 22  1  0
 22 23  2  0
 23 24  1  0
 24 25  2  0
 25 26  1  0
 26 27  2  0
 20 28  1  0
 28 29  2  0
 28 30  1  0
 30 31  1  0
 31 32  1  0
 32 33  1  0
 33 34  1  0
 34 35  1  0
 16 11  1  0
 27 22  1  0
 35 30  1  0
  1 36  1  0
  1 37  1  0
  1 38  1  0
  2 39  1  0
  3 40  1  0
  3 41  1  0
  3 42  1  0
  4 43  1  0
  4 44  1  0
  5 45  1  6
  6 46  1  0
 10 47  1  0
 10 48  1  0
 12 49  1  0
 13 50  1  0
 14 51  1  0
 15 52  1  0
 16 53  1  0
 19 54  1  0
 20 55  1  6
 21 56  1  0
 21 57  1  0
 23 58  1  0
 24 59  1  0
 25 60  1  0
 26 61  1  0
 27 62  1  0
 31 63  1  0
 31 64  1  0
 32 65  1  0
 32 66  1  0
 34 67  1  0
 34 68  1  0
 35 69  1  0
 35 70  1  0
M  END
$$$$
[H]N=C(N([H])[H])N([H])C([H])([H])C([H])([H])C([H])([H])[C@@]([H])(C(=O)N([H])[C@]([H])(C(=O)N([H])[H])C([H])([H])c1c([H])c([H])c([H])c([H])c1[H])N([H])C(=O)[C@@]([H])(N([H])C(=O)[C@@]([H])(N([H])C(=O)OC(C([H])([H])[H])(C([H])([H])[H])C([H])([H])[H])C([H])([H])c1c([H])c([H])c([H])c([H])c1[H])C([H])([H])C([H])([H])C([H])([H])N([H])C(=N[H])N([H])[H]
     RDKit          3D

105106  0  0  0  0  0  0  0  0999 V2000
   -7.0493   -3.3637   -3.9464 C   0  0  0  0  0  0  0  0  0  0  0  0
   -6.7568   -2.1381   -3.0670 C   0  0  0  0  0  0  0  0  0  0  0  0
   -7.8627   -2.0214   -2.0757 C   0  0  0  0  0  0  0  0  0  0  0  0
   -6.8432   -0.9373   -4.0107 C   0  0  0  0  0  0  0  0  0  0  0  0
   -5.4761   -2.2916   -2.5453 O   0  0  0  0  0  0  0  0  0  0  0  0
   -4.8567   -1.4015   -1.6748 C   0  0  0  0  0  0  0  0  0  0  0  0
   -5.4609   -0.3902   -1.3015 O   0  0  0  0  0  0  0  0  0  0  0  0
   -3.5296   -1.6279   -1.2010 N   0  0  0  0  0  0  0  0  0  0  0  0
   -2.8320   -0.7739   -0.3041 C   0  0  1  0  0  0  0  0  0  0  0  0
   -2.1805   -1.4681    0.8366 C   0  0  0  0  0  0  0  0  0  0  0  0
   -3.1223   -2.1844    1.7243 C   0  0  0  0  0  0  0  0  0  0  0  0
   -3.6936   -1.4916    2.7893 C   0  0  0  0  0  0  0  0  0  0  0  0
   -4.5790   -2.0863    3.6567 C   0  0  0  0  0  0  0  0  0  0  0  0
   -4.8924   -3.4202    3.4372 C   0  0  0  0  0  0  0  0  0  0  0  0
   -4.3328   -4.1036    2.3933 C   0  0  0  0  0  0  0  0  0  0  0  0
   -3.4365   -3.4833    1.5229 C   0  0  0  0  0  0  0  0  0  0  0  0
   -1.8747    0.1671   -0.9549 C   0  0  0  0  0  0  0  0  0  0  0  0
   -1.8008    0.0590   -2.2209 O   0  0  0  0  0  0  0  0  0  0  0  0
   -1.1373    1.0818   -0.1894 N   0  0  0  0  0  0  0  0  0  0  0  0
   -0.1850    2.0510   -0.6231 C   0  0  1  0  0  0  0  0  0  0  0  0
   -0.3347    3.4684   -0.3766 C   0  0  0  0  0  0  0  0  0  0  0  0
   -0.4298    4.1025    0.9335 C   0  0  0  0  0  0  0  0  0  0  0  0
   -1.5964    3.7461    1.7801 C   0  0  0  0  0  0  0  0  0  0  0  0
   -2.8711    4.0291    1.1428 N   0  0  0  0  0  0  0  0  0  0  0  0
   -3.3318    5.3425    0.8737 C   0  0  0  0  0  0  0  0  0  0  0  0
   -4.1393    5.6434   -0.2483 N   0  0  0  0  0  0  0  0  0  0  0  0
   -3.0114    6.2891    1.6777 N   0  0  0  0  0  0  0  0  0  0  0  0
    1.1984    1.5244   -0.5695 C   0  0  0  0  0  0  0  0  0  0  0  0
    1.3204    0.3552   -1.1164 O   0  0  0  0  0  0  0  0  0  0  0  0
    2.3479    2.0691   -0.0350 N   0  0  0  0  0  0  0  0  0  0  0  0
    3.6488    1.3765   -0.1075 C   0  0  1  0  0  0  0  0  0  0  0  0
    4.7461    2.2761    0.2870 C   0  0  0  0  0  0  0  0  0  0  0  0
    4.8445    3.4886   -0.5719 C   0  0  0  0  0  0  0  0  0  0  0  0
    5.0630    3.2109   -2.0288 C   0  0  0  0  0  0  0  0  0  0  0  0
    5.1511    4.4781   -2.7139 N   0  0  0  0  0  0  0  0  0  0  0  0
    4.0390    5.3365   -2.8272 C   0  0  0  0  0  0  0  0  0  0  0  0
    3.8864    6.3784   -1.8519 N   0  0  0  0  0  0  0  0  0  0  0  0
    3.1710    5.2362   -3.7472 N   0  0  0  0  0  0  0  0  0  0  0  0
    3.5748    0.1268    0.7233 C   0  0  0  0  0  0  0  0  0  0  0  0
    2.5700   -0.1398    1.3967 O   0  0  0  0  0  0  0  0  0  0  0  0
    4.6606   -0.7829    0.7461 N   0  0  0  0  0  0  0  0  0  0  0  0
    4.6211   -2.0393    1.5156 C   0  0  1  0  0  0  0  0  0  0  0  0
    4.9671   -3.1403    0.5666 C   0  0  0  0  0  0  0  0  0  0  0  0
    4.9952   -4.5132    1.0965 C   0  0  0  0  0  0  0  0  0  0  0  0
    3.8661   -5.2924    1.2174 C   0  0  0  0  0  0  0  0  0  0  0  0
    3.9376   -6.5968    1.6554 C   0  0  0  0  0  0  0  0  0  0  0  0
    5.1529   -7.1644    1.9880 C   0  0  0  0  0  0  0  0  0  0  0  0
    6.2953   -6.4167    1.8794 C   0  0  0  0  0  0  0  0  0  0  0  0
    6.2145   -5.1209    1.4436 C   0  0  0  0  0  0  0  0  0  0  0  0
    5.6009   -1.9511    2.6089 C   0  0  0  0  0  0  0  0  0  0  0  0
    5.7550   -2.9409    3.6151 N   0  0  0  0  0  0  0  0  0  0  0  0
    6.3795   -0.9393    2.6993 O   0  0  0  0  0  0  0  0  0  0  0  0
   -7.7525   -3.1218   -4.7657 H   0  0  0  0  0  0  0  0  0  0  0  0
   -6.0921   -3.7664   -4.2768 H   0  0  0  0  0  0  0  0  0  0  0  0
   -7.5033   -4.1041   -3.2296 H   0  0  0  0  0  0  0  0  0  0  0  0
   -8.3319   -1.0418   -1.9719 H   0  0  0  0  0  0  0  0  0  0  0  0
   -8.6237   -2.8415   -2.2166 H   0  0  0  0  0  0  0  0  0  0  0  0
   -7.4323   -2.2501   -1.0520 H   0  0  0  0  0  0  0  0  0  0  0  0
   -7.9230   -0.7522   -4.1865 H   0  0  0  0  0  0  0  0  0  0  0  0
   -6.4073   -1.1737   -5.0045 H   0  0  0  0  0  0  0  0  0  0  0  0
   -6.4227   -0.0533   -3.5310 H   0  0  0  0  0  0  0  0  0  0  0  0
   -3.0423   -2.4797   -1.5460 H   0  0  0  0  0  0  0  0  0  0  0  0
   -3.6172   -0.0764    0.1305 H   0  0  0  0  0  0  0  0  0  0  0  0
   -1.4700   -2.2818    0.4682 H   0  0  0  0  0  0  0  0  0  0  0  0
   -1.5360   -0.7910    1.4244 H   0  0  0  0  0  0  0  0  0  0  0  0
   -3.4555   -0.4472    2.9735 H   0  0  0  0  0  0  0  0  0  0  0  0
   -5.0474   -1.5807    4.4940 H   0  0  0  0  0  0  0  0  0  0  0  0
   -5.5918   -3.9400    4.1044 H   0  0  0  0  0  0  0  0  0  0  0  0
   -4.5982   -5.1533    2.2456 H   0  0  0  0  0  0  0  0  0  0  0  0
   -3.0142   -4.0845    0.6973 H   0  0  0  0  0  0  0  0  0  0  0  0
   -1.3272    1.0049    0.8695 H   0  0  0  0  0  0  0  0  0  0  0  0
   -0.3593    1.9872   -1.8121 H   0  0  0  0  0  0  0  0  0  0  0  0
    0.5421    3.9792   -0.9486 H   0  0  0  0  0  0  0  0  0  0  0  0
   -1.2066    3.9012   -0.9891 H   0  0  0  0  0  0  0  0  0  0  0  0
   -0.5501    5.2290    0.7313 H   0  0  0  0  0  0  0  0  0  0  0  0
    0.5303    4.1014    1.5207 H   0  0  0  0  0  0  0  0  0  0  0  0
   -1.6192    4.4482    2.7097 H   0  0  0  0  0  0  0  0  0  0  0  0
   -1.6031    2.7191    2.1453 H   0  0  0  0  0  0  0  0  0  0  0  0
   -3.4834    3.2355    0.8738 H   0  0  0  0  0  0  0  0  0  0  0  0
   -4.8430    4.9605   -0.6234 H   0  0  0  0  0  0  0  0  0  0  0  0
   -4.0467    6.5526   -0.7290 H   0  0  0  0  0  0  0  0  0  0  0  0
   -3.2948    7.2933    1.5772 H   0  0  0  0  0  0  0  0  0  0  0  0
    2.3484    2.9846    0.4400 H   0  0  0  0  0  0  0  0  0  0  0  0
    3.8151    0.9693   -1.1380 H   0  0  0  0  0  0  0  0  0  0  0  0
    5.7336    1.7324    0.1952 H   0  0  0  0  0  0  0  0  0  0  0  0
    4.6108    2.5908    1.3504 H   0  0  0  0  0  0  0  0  0  0  0  0
    3.9512    4.1421   -0.4964 H   0  0  0  0  0  0  0  0  0  0  0  0
    5.7017    4.1420   -0.2421 H   0  0  0  0  0  0  0  0  0  0  0  0
    5.9890    2.5973   -2.1814 H   0  0  0  0  0  0  0  0  0  0  0  0
    4.1834    2.6682   -2.4536 H   0  0  0  0  0  0  0  0  0  0  0  0
    6.0566    4.7572   -3.1331 H   0  0  0  0  0  0  0  0  0  0  0  0
    4.6043    7.0923   -1.6960 H   0  0  0  0  0  0  0  0  0  0  0  0
    2.9985    6.3972   -1.2854 H   0  0  0  0  0  0  0  0  0  0  0  0
    2.3512    5.9084   -3.7873 H   0  0  0  0  0  0  0  0  0  0  0  0
    5.5149   -0.5818    0.2144 H   0  0  0  0  0  0  0  0  0  0  0  0
    3.6117   -2.1636    1.9823 H   0  0  0  0  0  0  0  0  0  0  0  0
    4.2475   -3.1463   -0.3089 H   0  0  0  0  0  0  0  0  0  0  0  0
    5.9683   -2.8794    0.0817 H   0  0  0  0  0  0  0  0  0  0  0  0
    2.8982   -4.8705    0.9587 H   0  0  0  0  0  0  0  0  0  0  0  0
    3.0349   -7.2179    1.7523 H   0  0  0  0  0  0  0  0  0  0  0  0
    5.1985   -8.2007    2.3340 H   0  0  0  0  0  0  0  0  0  0  0  0
    7.2255   -6.9025    2.1496 H   0  0  0  0  0  0  0  0  0  0  0  0
    7.1145   -4.5204    1.3582 H   0  0  0  0  0  0  0  0  0  0  0  0
    4.9086   -3.5288    3.8243 H   0  0  0  0  0  0  0  0  0  0  0  0
    6.6648   -3.0583    4.1008 H   0  0  0  0  0  0  0  0  0  0  0  0
  1  2  1  0
  2  3  1  0
  2  4  1  0
  2  5  1  0
  5  6  1  0
  6  7  2  0
  6  8  1  0
  8  9  1  0
  9 10  1  0
 10 11  1  0
 11 12  2  0
 12 13  1  0
 13 14  2  0
 14 15  1  0
 15 16  2  0
  9 17  1  0
 17 18  2  0
 17 19  1  0
 19 20  1  0
 20 21  1  0
 21 22  1  0
 22 23  1  0
 23 24  1  0
 24 25  1  0
 25 26  1  0
 25 27  2  3
 20 28  1  0
 28 29  2  0
 28 30  1  0
 30 31  1  0
 31 32  1  0
 32 33  1  0
 33 34  1  0
 34 35  1  0
 35 36  1  0
 36 37  1  0
 36 38  2  3
 31 39  1  0
 39 40  2  0
 39 41  1  0
 41 42  1  0
 42 43  1  0
 43 44  1  0
 44 45  2  0
 45 46  1  0
 46 47  2  0
 47 48  1  0
 48 49  2  0
 42 50  1  0
 50 51  1  0
 50 52  2  0
 16 11  1  0
 49 44  1  0
  1 53  1  0
  1 54  1  0
  1 55  1  0
  3 56  1  0
  3 57  1  0
  3 58  1  0
  4 59  1  0
  4 60  1  0
  4 61  1  0
  8 62  1  0
  9 63  1  1
 10 64  1  0
 10 65  1  0
 12 66  1  0
 13 67  1  0
 14 68  1  0
 15 69  1  0
 16 70  1  0
 19 71  1  0
 20 72  1  6
 21 73  1  0
 21 74  1  0
 22 75  1  0
 22 76  1  0
 23 77  1  0
 23 78  1  0
 24 79  1  0
 26 80  1  0
 26 81  1  0
 27 82  1  0
 30 83  1  0
 31 84  1  6
 32 85  1  0
 32 86  1  0
 33 87  1  0
 33 88  1  0
 34 89  1  0
 34 90  1  0
 35 91  1  0
 37 92  1  0
 37 93  1  0
 38 94  1  0
 41 95  1  0
 42 96  1  1
 43 97  1  0
 43 98  1  0
 45 99  1  0
 46100  1  0
 47101  1  0
 48102  1  0
 49103  1  0
 51104  1  0
 51105  1  0
M  END
$$$$
[H]Oc1c([H])c([H])c2c(c1[H])C([H])([H])C([H])([H])[C@]1([H])[C@]2([H])C([H])([H])C([H])([H])[C@@]2(C([H])([H])[H])[C@@]([H])(c3c([H])c([H])c(C(F)(F)F)c([H])c3[H])C([H])([H])C([H])([H])[C@@]12[H]
     RDKit          3D

 56 60  0  0  0  0  0  0  0  0999 V2000
    0.4831    1.0776    1.5483 C   0  0  0  0  0  0  0  0  0  0  0  0
    0.6362    0.4241    0.1353 C   0  0  1  0  0  0  0  0  0  0  0  0
    0.5252   -1.0503    0.2513 C   0  0  0  0  0  0  0  0  0  0  0  0
   -0.8505   -1.5551    0.6531 C   0  0  0  0  0  0  0  0  0  0  0  0
   -1.9249   -0.6070    0.3288 C   0  0  1  0  0  0  0  0  0  0  0  0
   -1.6260    0.0601   -0.9925 C   0  0  1  0  0  0  0  0  0  0  0  0
   -2.7798    0.9646   -1.4495 C   0  0  0  0  0  0  0  0  0  0  0  0
   -4.0015    0.1358   -1.6148 C   0  0  0  0  0  0  0  0  0  0  0  0
   -4.3300   -0.5085   -0.3090 C   0  0  0  0  0  0  0  0  0  0  0  0
   -5.7001   -0.6713   -0.0095 C   0  0  0  0  0  0  0  0  0  0  0  0
   -6.0338   -1.3605    1.1382 C   0  0  0  0  0  0  0  0  0  0  0  0
   -7.4182   -1.5073    1.4416 O   0  0  0  0  0  0  0  0  0  0  0  0
   -5.0675   -1.8765    1.9429 C   0  0  0  0  0  0  0  0  0  0  0  0
   -3.7036   -1.7063    1.6402 C   0  0  0  0  0  0  0  0  0  0  0  0
   -3.3321   -1.0003    0.4910 C   0  0  0  0  0  0  0  0  0  0  0  0
   -0.5019    1.0339   -0.6852 C   0  0  2  0  0  0  0  0  0  0  0  0
    0.0708    1.5936   -1.9459 C   0  0  0  0  0  0  0  0  0  0  0  0
    1.4729    1.0910   -2.0370 C   0  0  0  0  0  0  0  0  0  0  0  0
    1.8151    0.9722   -0.5424 C   0  0  2  0  0  0  0  0  0  0  0  0
    3.1776    0.5893   -0.3331 C   0  0  0  0  0  0  0  0  0  0  0  0
    3.7197   -0.4241   -1.1170 C   0  0  0  0  0  0  0  0  0  0  0  0
    5.0552   -0.7442   -1.0599 C   0  0  0  0  0  0  0  0  0  0  0  0
    5.9161   -0.0979   -0.2381 C   0  0  0  0  0  0  0  0  0  0  0  0
    5.4054    0.9202    0.5683 C   0  0  0  0  0  0  0  0  0  0  0  0
    4.0478    1.2418    0.5032 C   0  0  0  0  0  0  0  0  0  0  0  0
    7.4016   -0.3794   -0.2307 C   0  0  0  0  0  0  0  0  0  0  0  0
    7.9374    0.0771    0.9329 F   0  0  0  0  0  0  0  0  0  0  0  0
    7.9805    0.4404   -1.2399 F   0  0  0  0  0  0  0  0  0  0  0  0
    7.7216   -1.6803   -0.4333 F   0  0  0  0  0  0  0  0  0  0  0  0
    0.1705    0.3374    2.2896 H   0  0  0  0  0  0  0  0  0  0  0  0
   -0.2637    1.8997    1.5289 H   0  0  0  0  0  0  0  0  0  0  0  0
    1.4461    1.5952    1.8180 H   0  0  0  0  0  0  0  0  0  0  0  0
    1.2349   -1.3622    1.0600 H   0  0  0  0  0  0  0  0  0  0  0  0
    0.7766   -1.5093   -0.7135 H   0  0  0  0  0  0  0  0  0  0  0  0
   -0.8079   -1.8427    1.7343 H   0  0  0  0  0  0  0  0  0  0  0  0
   -1.0292   -2.5098    0.1277 H   0  0  0  0  0  0  0  0  0  0  0  0
   -1.8929    0.2793    1.1441 H   0  0  0  0  0  0  0  0  0  0  0  0
   -1.3510   -0.7036   -1.7195 H   0  0  0  0  0  0  0  0  0  0  0  0
   -2.9123    1.7224   -0.6518 H   0  0  0  0  0  0  0  0  0  0  0  0
   -2.4214    1.4017   -2.4113 H   0  0  0  0  0  0  0  0  0  0  0  0
   -4.8890    0.6819   -2.0111 H   0  0  0  0  0  0  0  0  0  0  0  0
   -3.7621   -0.6726   -2.3711 H   0  0  0  0  0  0  0  0  0  0  0  0
   -6.4785   -0.2629   -0.6449 H   0  0  0  0  0  0  0  0  0  0  0  0
   -7.8207   -0.7456    2.0290 H   0  0  0  0  0  0  0  0  0  0  0  0
   -5.3685   -2.4139    2.8153 H   0  0  0  0  0  0  0  0  0  0  0  0
   -2.9408   -2.1075    2.2640 H   0  0  0  0  0  0  0  0  0  0  0  0
   -0.9989    1.8646   -0.1463 H   0  0  0  0  0  0  0  0  0  0  0  0
   -0.4996    1.1571   -2.8237 H   0  0  0  0  0  0  0  0  0  0  0  0
    0.0221    2.6807   -1.9942 H   0  0  0  0  0  0  0  0  0  0  0  0
    2.1449    1.8626   -2.4425 H   0  0  0  0  0  0  0  0  0  0  0  0
    1.4916    0.1469   -2.5645 H   0  0  0  0  0  0  0  0  0  0  0  0
    1.7664    2.1087   -0.2358 H   0  0  0  0  0  0  0  0  0  0  0  0
    3.0818   -0.9803   -1.7682 H   0  0  0  0  0  0  0  0  0  0  0  0
    5.4556   -1.5595   -1.6952 H   0  0  0  0  0  0  0  0  0  0  0  0
    6.0875    1.4340    1.2137 H   0  0  0  0  0  0  0  0  0  0  0  0
    3.6621    2.0451    1.1376 H   0  0  0  0  0  0  0  0  0  0  0  0
  2  1  1  1
  2  3  1  0
  3  4  1  0
  4  5  1  0
  5  6  1  0
  6  7  1  0
  7  8  1  0
  8  9  1  0
  9 10  2  0
 10 11  1  0
 11 12  1  0
 11 13  2  0
 13 14  1  0
 14 15  2  0
  6 16  1  0
 16 17  1  0
 17 18  1  0
 18 19  1  0
 19 20  1  0
 20 21  2  0
 21 22  1  0
 22 23  2  0
 23 24  1  0
 24 25  2  0
 23 26  1  0
 26 27  1  0
 26 28  1  0
 26 29  1  0
 16  2  1  0
 25 20  1  0
 19  2  1  0
 15  5  1  0
 15  9  1  0
  1 30  1  0
  1 31  1  0
  1 32  1  0
  3 33  1  0
  3 34  1  0
  4 35  1  0
  4 36  1  0
  5 37  1  1
  6 38  1  6
  7 39  1  0
  7 40  1  0
  8 41  1  0
  8 42  1  0
 10 43  1  0
 12 44  1  0
 13 45  1  0
 14 46  1  0
 16 47  1  1
 17 48  1  0
 17 49  1  0
 18 50  1  0
 18 51  1  0
 19 52  1  1
 21 53  1  0
 22 54  1  0
 24 55  1  0
 25 56  1  0
M  END
$$$$
[H]c1c([H])c([H])c(C([H])([H])[C@@]([H])(C(=O)N([H])[C@]([H])(C(=O)N([H])[C@@]([H])(C([H])([H])C([H])(C([H])([H])[H])C([H])([H])[H])C([H])(C([H])([H])[H])C([H])([H])[H])C([H])([H])c2c([H])c([H])c([H])c([H])c2[H])N([H])[H])c([H])c1[H]
     RDKit          3D

 68 69  0  0  0  0  0  0  0  0999 V2000
   -2.8089    3.5100   -0.3560 C   0  0  0  0  0  0  0  0  0  0  0  0
   -3.5452    2.6659   -1.3420 C   0  0  0  0  0  0  0  0  0  0  0  0
   -4.4616    3.5472   -2.1551 C   0  0  0  0  0  0  0  0  0  0  0  0
   -4.2864    1.5054   -0.7223 C   0  0  0  0  0  0  0  0  0  0  0  0
   -3.3795    0.5651    0.0041 C   0  0  2  0  0  0  0  0  0  0  0  0
   -2.3568   -0.0381   -0.8253 N   0  0  0  0  0  0  0  0  0  0  0  0
   -1.0035    0.0735   -0.4197 C   0  0  0  0  0  0  0  0  0  0  0  0
   -0.7298    0.6810    0.6282 O   0  0  0  0  0  0  0  0  0  0  0  0
    0.0842   -0.5279   -1.2353 C   0  0  2  0  0  0  0  0  0  0  0  0
   -0.2157   -1.9587   -1.5443 C   0  0  0  0  0  0  0  0  0  0  0  0
    0.7716   -2.6659   -2.3490 C   0  0  0  0  0  0  0  0  0  0  0  0
    0.7480   -2.6372   -3.7498 C   0  0  0  0  0  0  0  0  0  0  0  0
    1.6833   -3.3216   -4.4963 C   0  0  0  0  0  0  0  0  0  0  0  0
    2.6783   -4.0610   -3.8949 C   0  0  0  0  0  0  0  0  0  0  0  0
    2.7156   -4.0999   -2.5188 C   0  0  0  0  0  0  0  0  0  0  0  0
    1.7653   -3.4046   -1.7676 C   0  0  0  0  0  0  0  0  0  0  0  0
    1.3320   -0.2965   -0.5640 N   0  0  0  0  0  0  0  0  0  0  0  0
    1.6938   -0.7385    0.7137 C   0  0  0  0  0  0  0  0  0  0  0  0
    0.9447   -1.4269    1.4711 O   0  0  0  0  0  0  0  0  0  0  0  0
    3.0300   -0.4079    1.2673 C   0  0  1  0  0  0  0  0  0  0  0  0
    3.8691    0.3058    0.3331 N   0  0  0  0  0  0  0  0  0  0  0  0
    2.8238    0.4764    2.4900 C   0  0  0  0  0  0  0  0  0  0  0  0
    4.0868    0.8710    3.1281 C   0  0  0  0  0  0  0  0  0  0  0  0
    4.7808    2.0299    2.8090 C   0  0  0  0  0  0  0  0  0  0  0  0
    5.9487    2.3391    3.4387 C   0  0  0  0  0  0  0  0  0  0  0  0
    6.4794    1.5163    4.4098 C   0  0  0  0  0  0  0  0  0  0  0  0
    5.7786    0.3657    4.7181 C   0  0  0  0  0  0  0  0  0  0  0  0
    4.6049    0.0215    4.1089 C   0  0  0  0  0  0  0  0  0  0  0  0
   -4.1947   -0.5551    0.6081 C   0  0  0  0  0  0  0  0  0  0  0  0
   -5.2209   -0.0255    1.5900 C   0  0  0  0  0  0  0  0  0  0  0  0
   -4.8109   -1.3682   -0.4795 C   0  0  0  0  0  0  0  0  0  0  0  0
   -1.7877    3.7401   -0.7226 H   0  0  0  0  0  0  0  0  0  0  0  0
   -3.3098    4.5164   -0.2662 H   0  0  0  0  0  0  0  0  0  0  0  0
   -2.8069    3.0988    0.6725 H   0  0  0  0  0  0  0  0  0  0  0  0
   -2.7826    2.1993   -2.0289 H   0  0  0  0  0  0  0  0  0  0  0  0
   -5.0357    4.2478   -1.5151 H   0  0  0  0  0  0  0  0  0  0  0  0
   -3.8850    4.1880   -2.8645 H   0  0  0  0  0  0  0  0  0  0  0  0
   -5.2236    2.9440   -2.7175 H   0  0  0  0  0  0  0  0  0  0  0  0
   -5.0023    1.9260    0.0042 H   0  0  0  0  0  0  0  0  0  0  0  0
   -4.8581    0.9842   -1.4864 H   0  0  0  0  0  0  0  0  0  0  0  0
   -2.8973    1.0748    0.8880 H   0  0  0  0  0  0  0  0  0  0  0  0
   -2.6436   -0.5359   -1.6996 H   0  0  0  0  0  0  0  0  0  0  0  0
    0.0872    0.0520   -2.1990 H   0  0  0  0  0  0  0  0  0  0  0  0
   -0.4612   -2.4728   -0.5840 H   0  0  0  0  0  0  0  0  0  0  0  0
   -1.1865   -1.9566   -2.1139 H   0  0  0  0  0  0  0  0  0  0  0  0
   -0.0232   -2.0636   -4.2160 H   0  0  0  0  0  0  0  0  0  0  0  0
    1.6699   -3.3023   -5.5943 H   0  0  0  0  0  0  0  0  0  0  0  0
    3.4037   -4.5915   -4.4931 H   0  0  0  0  0  0  0  0  0  0  0  0
    3.5003   -4.6827   -2.0595 H   0  0  0  0  0  0  0  0  0  0  0  0
    1.8467   -3.4839   -0.7067 H   0  0  0  0  0  0  0  0  0  0  0  0
    2.0462    0.2700   -1.0972 H   0  0  0  0  0  0  0  0  0  0  0  0
    3.5975   -1.3198    1.5522 H   0  0  0  0  0  0  0  0  0  0  0  0
    3.9273   -0.2008   -0.5899 H   0  0  0  0  0  0  0  0  0  0  0  0
    4.8282    0.3674    0.7552 H   0  0  0  0  0  0  0  0  0  0  0  0
    2.2554    1.3809    2.2474 H   0  0  0  0  0  0  0  0  0  0  0  0
    2.2149   -0.1139    3.2360 H   0  0  0  0  0  0  0  0  0  0  0  0
    4.3672    2.6873    2.0407 H   0  0  0  0  0  0  0  0  0  0  0  0
    6.4817    3.2489    3.1802 H   0  0  0  0  0  0  0  0  0  0  0  0
    7.4008    1.8090    4.8716 H   0  0  0  0  0  0  0  0  0  0  0  0
    6.1878   -0.2780    5.4738 H   0  0  0  0  0  0  0  0  0  0  0  0
    4.0982   -0.8984    4.3943 H   0  0  0  0  0  0  0  0  0  0  0  0
   -3.4464   -1.1748    1.1873 H   0  0  0  0  0  0  0  0  0  0  0  0
   -5.6761   -0.9080    2.0901 H   0  0  0  0  0  0  0  0  0  0  0  0
   -4.7297    0.6188    2.3288 H   0  0  0  0  0  0  0  0  0  0  0  0
   -6.0221    0.4714    1.0190 H   0  0  0  0  0  0  0  0  0  0  0  0
   -4.5720   -0.9958   -1.4895 H   0  0  0  0  0  0  0  0  0  0  0  0
   -4.4400   -2.4221   -0.3857 H   0  0  0  0  0  0  0  0  0  0  0  0
   -5.9284   -1.3640   -0.4099 H   0  0  0  0  0  0  0  0  0  0  0  0
  1  2  1  0
  2  3  1  0
  2  4  1  0
  4  5  1  0
  5  6  1  0
  6  7  1  0
  7  8  2  0
  7  9  1  0
  9 10  1  0
 10 11  1  0
 11 12  2  0
 12 13  1  0
 13 14  2  0
 14 15  1  0
 15 16  2  0
  9 17  1  0
 17 18  1  0
 18 19  2  0
 18 20  1  0
 20 21  1  0
 20 22  1  0
 22 23  1  0
 23 24  2  0
 24 25  1  0
 25 26  2  0
 26 27  1  0
 27 28  2  0
  5 29  1  0
 29 30  1  0
 29 31  1  0
 16 11  1  0
 28 23  1  0
  1 32  1  0
  1 33  1  0
  1 34  1  0
  2 35  1  0
  3 36  1  0
  3 37  1  0
  3 38  1  0
  4 39  1  0
  4 40  1  0
  5 41  1  1
  6 42  1  0
  9 43  1  6
 10 44  1  0
 10 45  1  0
 12 46  1  0
 13 47  1  0
 14 48  1  0
 15 49  1  0
 16 50  1  0
 17 51  1  0
 20 52  1  1
 21 53  1  0
 21 54  1  0
 22 55  1  0
 22 56  1  0
 24 57  1  0
 25 58  1  0
 26 59  1  0
 27 60  1  0
 28 61  1  0
 29 62  1  0
 30 63  1  0
 30 64  1  0
 30 65  1  0
 31 66  1  0
 31 67  1  0
 31 68  1  0
M  END
$$$$
[H]O[C@@]([H])(c1c([H])c([H])c([H])c([H])c1[H])[C@@]1([H])N(C(=O)N([H])c2c([H])c([H])c(Cl)c(C(F)(F)F)c2[H])C([H])([H])[C@@]([H])(C([H])([H])[H])C1([H])[H]
     RDKit          3D

 48 50  0  0  0  0  0  0  0  0999 V2000
   -3.0353   -3.7637    0.6054 C   0  0  0  0  0  0  0  0  0  0  0  0
   -1.8087   -2.9613    0.3222 C   0  0  1  0  0  0  0  0  0  0  0  0
   -2.0266   -1.8136   -0.6146 C   0  0  0  0  0  0  0  0  0  0  0  0
   -1.1237   -0.6820   -0.1261 C   0  0  2  0  0  0  0  0  0  0  0  0
   -0.3764   -1.2949    0.9527 N   0  0  0  0  0  0  0  0  0  0  0  0
   -1.2800   -2.2453    1.5653 C   0  0  0  0  0  0  0  0  0  0  0  0
    0.9773   -1.0480    1.3570 C   0  0  0  0  0  0  0  0  0  0  0  0
    1.3622   -1.7217    2.3369 O   0  0  0  0  0  0  0  0  0  0  0  0
    1.7200   -0.1137    0.6494 N   0  0  0  0  0  0  0  0  0  0  0  0
    3.0651    0.2495    0.9264 C   0  0  0  0  0  0  0  0  0  0  0  0
    3.7020   -0.0466    2.0994 C   0  0  0  0  0  0  0  0  0  0  0  0
    5.0422    0.3419    2.2636 C   0  0  0  0  0  0  0  0  0  0  0  0
    5.7257    1.0105    1.2773 C   0  0  0  0  0  0  0  0  0  0  0  0
    7.4092    1.4724    1.5430 Cl  0  0  0  0  0  0  0  0  0  0  0  0
    5.0763    1.3079    0.0930 C   0  0  0  0  0  0  0  0  0  0  0  0
    3.7754    0.9384   -0.0844 C   0  0  0  0  0  0  0  0  0  0  0  0
    5.8307    2.0359   -0.9722 C   0  0  0  0  0  0  0  0  0  0  0  0
    5.0640    2.2586   -2.0783 F   0  0  0  0  0  0  0  0  0  0  0  0
    6.9506    1.2811   -1.2727 F   0  0  0  0  0  0  0  0  0  0  0  0
    6.2658    3.2770   -0.5082 F   0  0  0  0  0  0  0  0  0  0  0  0
   -1.9521    0.4228    0.4888 C   0  0  1  0  0  0  0  0  0  0  0  0
   -1.1317    1.3635    1.1115 O   0  0  0  0  0  0  0  0  0  0  0  0
   -2.7361    1.1669   -0.5234 C   0  0  0  0  0  0  0  0  0  0  0  0
   -2.1431    2.0865   -1.3573 C   0  0  0  0  0  0  0  0  0  0  0  0
   -2.8943    2.7847   -2.3110 C   0  0  0  0  0  0  0  0  0  0  0  0
   -4.2458    2.5502   -2.4187 C   0  0  0  0  0  0  0  0  0  0  0  0
   -4.8532    1.6391   -1.5979 C   0  0  0  0  0  0  0  0  0  0  0  0
   -4.0898    0.9627   -0.6644 C   0  0  0  0  0  0  0  0  0  0  0  0
   -3.3673   -3.5354    1.6472 H   0  0  0  0  0  0  0  0  0  0  0  0
   -3.8398   -3.6272   -0.1342 H   0  0  0  0  0  0  0  0  0  0  0  0
   -2.7310   -4.8444    0.6016 H   0  0  0  0  0  0  0  0  0  0  0  0
   -0.9478   -3.6066   -0.0204 H   0  0  0  0  0  0  0  0  0  0  0  0
   -1.6322   -2.1407   -1.6212 H   0  0  0  0  0  0  0  0  0  0  0  0
   -3.0781   -1.5236   -0.6621 H   0  0  0  0  0  0  0  0  0  0  0  0
   -0.4835   -0.3179   -0.9505 H   0  0  0  0  0  0  0  0  0  0  0  0
   -2.1036   -1.7329    2.0953 H   0  0  0  0  0  0  0  0  0  0  0  0
   -0.7406   -2.9600    2.2267 H   0  0  0  0  0  0  0  0  0  0  0  0
    1.2503    0.3776   -0.1716 H   0  0  0  0  0  0  0  0  0  0  0  0
    3.2066   -0.5623    2.9188 H   0  0  0  0  0  0  0  0  0  0  0  0
    5.4992    0.0820    3.2122 H   0  0  0  0  0  0  0  0  0  0  0  0
    3.2664    1.1779   -1.0279 H   0  0  0  0  0  0  0  0  0  0  0  0
   -2.6368    0.0012    1.2276 H   0  0  0  0  0  0  0  0  0  0  0  0
   -1.0802    1.1538    2.0818 H   0  0  0  0  0  0  0  0  0  0  0  0
   -1.0880    2.2781   -1.2824 H   0  0  0  0  0  0  0  0  0  0  0  0
   -2.4412    3.5100   -2.9725 H   0  0  0  0  0  0  0  0  0  0  0  0
   -4.8352    3.0845   -3.1524 H   0  0  0  0  0  0  0  0  0  0  0  0
   -5.9225    1.4809   -1.7126 H   0  0  0  0  0  0  0  0  0  0  0  0
   -4.5647    0.2465   -0.0184 H   0  0  0  0  0  0  0  0  0  0  0  0
  1  2  1  0
  2  3  1  0
  3  4  1  0
  4  5  1  0
  5  6  1  0
  5  7  1  0
  7  8  2  0
  7  9  1  0
  9 10  1  0
 10 11  2  0
 11 12  1  0
 12 13  2  0
 13 14  1  0
 13 15  1  0
 15 16  2  0
 15 17  1  0
 17 18  1  0
 17 19  1  0
 17 20  1  0
  4 21  1  0
 21 22  1  0
 21 23  1  0
 23 24  2  0
 24 25  1  0
 25 26  2  0
 26 27  1  0
 27 28  2  0
  6  2  1  0
 16 10  1  0
 28 23  1  0
  1 29  1  0
  1 30  1  0
  1 31  1  0
  2 32  1  6
  3 33  1  0
  3 34  1  0
  4 35  1  6
  6 36  1  0
  6 37  1  0
  9 38  1  0
 11 39  1  0
 12 40  1  0
 16 41  1  0
 21 42  1  1
 22 43  1  0
 24 44  1  0
 25 45  1  0
 26 46  1  0
 27 47  1  0
 28 48  1  0
M  END
$$$$
[H]N=C(N([H])[H])N([H])C([H])([H])C([H])([H])C([H])([H])[C@@]([H])(C(=O)N([H])[C@]([H])(C(=O)N([H])[C@]([H])(C(=O)O[H])C([H])([H])c1c([H])c([H])c([H])c([H])c1[H])C([H])([H])C([H])(C([H])([H])[H])C([H])([H])[H])N([H])C(=O)[C@@]([H])(N([H])C(=O)[C@@]([H])(N([H])C(=O)OC([H])([H])c1c([H])c([H])c([H])c([H])c1[H])C([H])([H])c1c([H])c([H])c([H])c([H])c1[H])C([H])([H])C([H])(C([H])([H])[H])C([H])([H])[H]
     RDKit          3D

120122  0  0  0  0  0  0  0  0999 V2000
    4.5247    0.5712    4.0509 C   0  0  0  0  0  0  0  0  0  0  0  0
    4.2125   -0.6277    3.1986 C   0  0  0  0  0  0  0  0  0  0  0  0
    4.6935   -1.8752    3.9226 C   0  0  0  0  0  0  0  0  0  0  0  0
    2.7563   -0.7210    2.8462 C   0  0  0  0  0  0  0  0  0  0  0  0
    2.3848   -1.8933    2.0208 C   0  0  2  0  0  0  0  0  0  0  0  0
    2.9425   -2.0405    0.7281 N   0  0  0  0  0  0  0  0  0  0  0  0
    3.3416   -1.0112   -0.1410 C   0  0  0  0  0  0  0  0  0  0  0  0
    3.1394    0.1689    0.3063 O   0  0  0  0  0  0  0  0  0  0  0  0
    3.9348   -1.1867   -1.4673 C   0  0  2  0  0  0  0  0  0  0  0  0
    5.1865   -1.9756   -1.5910 C   0  0  0  0  0  0  0  0  0  0  0  0
    5.2785   -3.3426   -1.1890 C   0  0  0  0  0  0  0  0  0  0  0  0
    5.9226   -3.7340   -0.0527 C   0  0  0  0  0  0  0  0  0  0  0  0
    6.0423   -5.0436    0.3618 C   0  0  0  0  0  0  0  0  0  0  0  0
    5.4982   -6.0249   -0.3859 C   0  0  0  0  0  0  0  0  0  0  0  0
    4.8141   -5.6717   -1.5768 C   0  0  0  0  0  0  0  0  0  0  0  0
    4.7146   -4.3468   -1.9567 C   0  0  0  0  0  0  0  0  0  0  0  0
    4.2224    0.0685   -2.1696 N   0  0  0  0  0  0  0  0  0  0  0  0
    4.4508    1.2094   -2.7444 C   0  0  0  0  0  0  0  0  0  0  0  0
    4.1529    2.3681   -2.3161 O   0  0  0  0  0  0  0  0  0  0  0  0
    5.1311    1.2816   -4.0057 O   0  0  0  0  0  0  0  0  0  0  0  0
    5.4529    2.5557   -4.6017 C   0  0  0  0  0  0  0  0  0  0  0  0
    6.4341    3.2162   -3.6749 C   0  0  0  0  0  0  0  0  0  0  0  0
    6.1604    4.3387   -2.9432 C   0  0  0  0  0  0  0  0  0  0  0  0
    7.0918    4.8614   -2.0342 C   0  0  0  0  0  0  0  0  0  0  0  0
    8.3100    4.1966   -1.9036 C   0  0  0  0  0  0  0  0  0  0  0  0
    8.5795    3.0551   -2.6552 C   0  0  0  0  0  0  0  0  0  0  0  0
    7.6565    2.5692   -3.5296 C   0  0  0  0  0  0  0  0  0  0  0  0
    0.9362   -2.1482    2.1061 C   0  0  0  0  0  0  0  0  0  0  0  0
    0.4527   -3.1769    1.5875 O   0  0  0  0  0  0  0  0  0  0  0  0
    0.0851   -1.2474    2.7527 N   0  0  0  0  0  0  0  0  0  0  0  0
   -1.3654   -1.5083    2.8567 C   0  0  1  0  0  0  0  0  0  0  0  0
   -1.9870   -0.7489    3.9320 C   0  0  0  0  0  0  0  0  0  0  0  0
   -1.8836    0.7309    3.9335 C   0  0  0  0  0  0  0  0  0  0  0  0
   -2.4863    1.4752    2.8023 C   0  0  0  0  0  0  0  0  0  0  0  0
   -2.2637    2.8933    3.0665 N   0  0  0  0  0  0  0  0  0  0  0  0
   -2.7634    3.9567    2.2878 C   0  0  0  0  0  0  0  0  0  0  0  0
   -4.1610    4.1963    2.3454 N   0  0  0  0  0  0  0  0  0  0  0  0
   -2.0300    4.7309    1.5355 N   0  0  0  0  0  0  0  0  0  0  0  0
   -1.9875   -1.4510    1.5312 C   0  0  0  0  0  0  0  0  0  0  0  0
   -1.2335   -1.1304    0.5127 O   0  0  0  0  0  0  0  0  0  0  0  0
   -3.3538   -1.7218    1.2568 N   0  0  0  0  0  0  0  0  0  0  0  0
   -3.8098   -1.6718   -0.1104 C   0  0  1  0  0  0  0  0  0  0  0  0
   -4.8659   -2.7046   -0.3798 C   0  0  0  0  0  0  0  0  0  0  0  0
   -4.4491   -4.1249   -0.2272 C   0  0  0  0  0  0  0  0  0  0  0  0
   -3.3526   -4.5419   -1.1630 C   0  0  0  0  0  0  0  0  0  0  0  0
   -5.6738   -4.9874   -0.4943 C   0  0  0  0  0  0  0  0  0  0  0  0
   -4.4366   -0.3274   -0.3811 C   0  0  0  0  0  0  0  0  0  0  0  0
   -4.8655    0.3202    0.5704 O   0  0  0  0  0  0  0  0  0  0  0  0
   -4.5156    0.1512   -1.7143 N   0  0  0  0  0  0  0  0  0  0  0  0
   -5.0923    1.4440   -2.0204 C   0  0  1  0  0  0  0  0  0  0  0  0
   -6.5321    1.4735   -1.6229 C   0  0  0  0  0  0  0  0  0  0  0  0
   -7.2220    2.7472   -1.8764 C   0  0  0  0  0  0  0  0  0  0  0  0
   -7.3468    3.7045   -0.9034 C   0  0  0  0  0  0  0  0  0  0  0  0
   -7.9785    4.8875   -1.1912 C   0  0  0  0  0  0  0  0  0  0  0  0
   -8.4820    5.1178   -2.4413 C   0  0  0  0  0  0  0  0  0  0  0  0
   -8.3590    4.1534   -3.4319 C   0  0  0  0  0  0  0  0  0  0  0  0
   -7.7231    2.9720   -3.1271 C   0  0  0  0  0  0  0  0  0  0  0  0
   -4.2323    2.4918   -1.4756 C   0  0  0  0  0  0  0  0  0  0  0  0
   -4.4704    3.8602   -1.6811 O   0  0  0  0  0  0  0  0  0  0  0  0
   -3.2195    2.1785   -0.7833 O   0  0  0  0  0  0  0  0  0  0  0  0
    5.4413    0.3540    4.6312 H   0  0  0  0  0  0  0  0  0  0  0  0
    3.6272    0.6988    4.7270 H   0  0  0  0  0  0  0  0  0  0  0  0
    4.6682    1.4631    3.3843 H   0  0  0  0  0  0  0  0  0  0  0  0
    4.8428   -0.5563    2.3012 H   0  0  0  0  0  0  0  0  0  0  0  0
    5.0026   -2.6646    3.1546 H   0  0  0  0  0  0  0  0  0  0  0  0
    5.6267   -1.6002    4.4403 H   0  0  0  0  0  0  0  0  0  0  0  0
    3.9759   -2.2397    4.6493 H   0  0  0  0  0  0  0  0  0  0  0  0
    2.2242   -0.8580    3.8556 H   0  0  0  0  0  0  0  0  0  0  0  0
    2.3312    0.2075    2.4679 H   0  0  0  0  0  0  0  0  0  0  0  0
    2.8204   -2.8230    2.6140 H   0  0  0  0  0  0  0  0  0  0  0  0
    3.0431   -3.0418    0.3751 H   0  0  0  0  0  0  0  0  0  0  0  0
    3.0676   -1.6300   -2.1223 H   0  0  0  0  0  0  0  0  0  0  0  0
    5.9714   -1.3235   -1.0399 H   0  0  0  0  0  0  0  0  0  0  0  0
    5.5040   -1.8790   -2.6616 H   0  0  0  0  0  0  0  0  0  0  0  0
    6.3951   -3.0022    0.5866 H   0  0  0  0  0  0  0  0  0  0  0  0
    6.5924   -5.2685    1.2954 H   0  0  0  0  0  0  0  0  0  0  0  0
    5.5916   -7.0759   -0.0912 H   0  0  0  0  0  0  0  0  0  0  0  0
    4.4076   -6.4920   -2.1280 H   0  0  0  0  0  0  0  0  0  0  0  0
    4.1869   -4.1316   -2.8542 H   0  0  0  0  0  0  0  0  0  0  0  0
    3.9117    0.6937   -0.9757 H   0  0  0  0  0  0  0  0  0  0  0  0
    5.9794    2.2997   -5.5496 H   0  0  0  0  0  0  0  0  0  0  0  0
    4.5438    3.1459   -4.7244 H   0  0  0  0  0  0  0  0  0  0  0  0
    5.2059    4.8523   -3.0581 H   0  0  0  0  0  0  0  0  0  0  0  0
    6.8274    5.7386   -1.5026 H   0  0  0  0  0  0  0  0  0  0  0  0
    9.0331    4.5841   -1.1962 H   0  0  0  0  0  0  0  0  0  0  0  0
    9.5285    2.5672   -2.5732 H   0  0  0  0  0  0  0  0  0  0  0  0
    7.8558    1.6444   -4.1216 H   0  0  0  0  0  0  0  0  0  0  0  0
    0.4418   -0.3795    3.1851 H   0  0  0  0  0  0  0  0  0  0  0  0
   -1.3638   -2.6551    3.0908 H   0  0  0  0  0  0  0  0  0  0  0  0
   -3.0820   -1.0318    4.1055 H   0  0  0  0  0  0  0  0  0  0  0  0
   -1.5113   -1.0923    4.9054 H   0  0  0  0  0  0  0  0  0  0  0  0
   -0.8122    1.0772    4.0117 H   0  0  0  0  0  0  0  0  0  0  0  0
   -2.3556    1.1849    4.8665 H   0  0  0  0  0  0  0  0  0  0  0  0
   -2.1514    1.2008    1.7953 H   0  0  0  0  0  0  0  0  0  0  0  0
   -3.5903    1.3460    2.8568 H   0  0  0  0  0  0  0  0  0  0  0  0
   -1.6762    3.1971    3.9093 H   0  0  0  0  0  0  0  0  0  0  0  0
   -4.5148    4.9583    2.9383 H   0  0  0  0  0  0  0  0  0  0  0  0
   -4.7939    3.5878    1.7955 H   0  0  0  0  0  0  0  0  0  0  0  0
   -2.5240    5.4894    0.9986 H   0  0  0  0  0  0  0  0  0  0  0  0
   -4.0287   -1.9626    2.0044 H   0  0  0  0  0  0  0  0  0  0  0  0
   -2.9318   -1.7179   -0.8065 H   0  0  0  0  0  0  0  0  0  0  0  0
   -5.2846   -2.5554   -1.4143 H   0  0  0  0  0  0  0  0  0  0  0  0
   -5.6792   -2.5230    0.3683 H   0  0  0  0  0  0  0  0  0  0  0  0
   -4.1376   -4.3443    0.8271 H   0  0  0  0  0  0  0  0  0  0  0  0
   -3.8288   -5.1187   -1.9989 H   0  0  0  0  0  0  0  0  0  0  0  0
   -2.6202   -5.1724   -0.6689 H   0  0  0  0  0  0  0  0  0  0  0  0
   -2.9066   -3.6146   -1.6130 H   0  0  0  0  0  0  0  0  0  0  0  0
   -6.6150   -4.3688   -0.4418 H   0  0  0  0  0  0  0  0  0  0  0  0
   -5.6210   -5.4894   -1.4715 H   0  0  0  0  0  0  0  0  0  0  0  0
   -5.8046   -5.7699    0.2941 H   0  0  0  0  0  0  0  0  0  0  0  0
   -4.1461   -0.4207   -2.5159 H   0  0  0  0  0  0  0  0  0  0  0  0
   -5.1005    1.5489   -3.1621 H   0  0  0  0  0  0  0  0  0  0  0  0
   -6.7059    1.2251   -0.5545 H   0  0  0  0  0  0  0  0  0  0  0  0
   -7.0239    0.6088   -2.1791 H   0  0  0  0  0  0  0  0  0  0  0  0
   -6.9521    3.5648    0.1197 H   0  0  0  0  0  0  0  0  0  0  0  0
   -8.0849    5.6404   -0.4074 H   0  0  0  0  0  0  0  0  0  0  0  0
   -9.0057    6.0552   -2.6965 H   0  0  0  0  0  0  0  0  0  0  0  0
   -8.7501    4.3260   -4.4115 H   0  0  0  0  0  0  0  0  0  0  0  0
   -7.6342    2.2172   -3.9228 H   0  0  0  0  0  0  0  0  0  0  0  0
   -3.7714    4.3663   -2.2407 H   0  0  0  0  0  0  0  0  0  0  0  0
  1  2  1  0
  2  3  1  0
  2  4  1  0
  4  5  1  0
  5  6  1  0
  6  7  1  0
  7  8  2  0
  7  9  1  0
  9 10  1  0
 10 11  1  0
 11 12  2  0
 12 13  1  0
 13 14  2  0
 14 15  1  0
 15 16  2  0
  9 17  1  0
 17 18  1  0
 18 19  2  0
 18 20  1  0
 20 21  1  0
 21 22  1  0
 22 23  2  0
 23 24  1  0
 24 25  2  0
 25 26  1  0
 26 27  2  0
  5 28  1  0
 28 29  2  0
 28 30  1  0
 30 31  1  0
 31 32  1  0
 32 33  1  0
 33 34  1  0
 34 35  1  0
 35 36  1  0
 36 37  1  0
 36 38  2  3
 31 39  1  0
 39 40  2  0
 39 41  1  0
 41 42  1  0
 42 43  1  0
 43 44  1  0
 44 45  1  0
 44 46  1  0
 42 47  1  0
 47 48  2  0
 47 49  1  0
 49 50  1  0
 50 51  1  0
 51 52  1  0
 52 53  2  0
 53 54  1  0
 54 55  2  0
 55 56  1  0
 56 57  2  0
 50 58  1  0
 58 59  1  0
 58 60  2  0
 16 11  1  0
 27 22  1  0
 57 52  1  0
  1 61  1  0
  1 62  1  0
  1 63  1  0
  2 64  1  0
  3 65  1  0
  3 66  1  0
  3 67  1  0
  4 68  1  0
  4 69  1  0
  5 70  1  1
  6 71  1  0
  9 72  1  6
 10 73  1  0
 10 74  1  0
 12 75  1  0
 13 76  1  0
 14 77  1  0
 15 78  1  0
 16 79  1  0
 17 80  1  0
 21 81  1  0
 21 82  1  0
 23 83  1  0
 24 84  1  0
 25 85  1  0
 26 86  1  0
 27 87  1  0
 30 88  1  0
 31 89  1  1
 32 90  1  0
 32 91  1  0
 33 92  1  0
 33 93  1  0
 34 94  1  0
 34 95  1  0
 35 96  1  0
 37 97  1  0
 37 98  1  0
 38 99  1  0
 41100  1  0
 42101  1  6
 43102  1  0
 43103  1  0
 44104  1  0
 45105  1  0
 45106  1  0
 45107  1  0
 46108  1  0
 46109  1  0
 46110  1  0
 49111  1  0
 50112  1  6
 51113  1  0
 51114  1  0
 53115  1  0
 54116  1  0
 55117  1  0
 56118  1  0
 57119  1  0
 59120  1  0
M  END
$$$$
[H]Oc1c([H])c([H])c(C([H])([H])[C@@]([H])(C(=O)N2C([H])([H])C([H])([H])C([H])([H])[C@@]2([H])C(=O)N([H])[C@]([H])(C(=O)N([H])[C@]([H])(C(=O)N([H])[C@]([H])(C([H])(C([H])([H])[H])C([H])([H])[H])C(C([H])([H])[H])(C([H])([H])[H])C([H])([H])[H])C([H])([H])c2c([H])c([H])c(O[H])c([H])c2[H])C([H])([H])c2c([H])c([H])c(O[H])c([H])c2[H])N([H])[H])c([H])c1[H]
     RDKit          3D

105108  0  0  0  0  0  0  0  0999 V2000
   -6.7919   -2.9693    2.5807 C   0  0  0  0  0  0  0  0  0  0  0  0
   -5.8878   -2.3346    1.5690 C   0  0  0  0  0  0  0  0  0  0  0  0
   -5.8324   -3.1895    0.3357 C   0  0  0  0  0  0  0  0  0  0  0  0
   -6.0914   -0.8769    1.3366 C   0  0  1  0  0  0  0  0  0  0  0  0
   -5.1221   -0.4002    0.3253 N   0  0  0  0  0  0  0  0  0  0  0  0
   -4.0349    0.3813    0.6184 C   0  0  0  0  0  0  0  0  0  0  0  0
   -3.8957    0.6862    1.8743 O   0  0  0  0  0  0  0  0  0  0  0  0
   -3.0218    0.9036   -0.2459 C   0  0  2  0  0  0  0  0  0  0  0  0
   -3.1247    0.8448   -1.7225 C   0  0  0  0  0  0  0  0  0  0  0  0
   -4.2459    1.6242   -2.2827 C   0  0  0  0  0  0  0  0  0  0  0  0
   -4.0804    3.0183   -2.3516 C   0  0  0  0  0  0  0  0  0  0  0  0
   -5.0170    3.8585   -2.8906 C   0  0  0  0  0  0  0  0  0  0  0  0
   -6.1890    3.3591   -3.4003 C   0  0  0  0  0  0  0  0  0  0  0  0
   -7.1275    4.2226   -3.9421 O   0  0  0  0  0  0  0  0  0  0  0  0
   -6.3746    1.9894   -3.3443 C   0  0  0  0  0  0  0  0  0  0  0  0
   -5.4212    1.1606   -2.7985 C   0  0  0  0  0  0  0  0  0  0  0  0
   -1.6741    0.6547    0.2646 N   0  0  0  0  0  0  0  0  0  0  0  0
   -0.6002    1.5429    0.1156 C   0  0  0  0  0  0  0  0  0  0  0  0
   -0.7796    2.6089   -0.5094 O   0  0  0  0  0  0  0  0  0  0  0  0
    0.7436    1.2387    0.6818 C   0  0  2  0  0  0  0  0  0  0  0  0
    1.0033    2.0655    1.9160 C   0  0  0  0  0  0  0  0  0  0  0  0
    2.3147    1.7798    2.5050 C   0  0  0  0  0  0  0  0  0  0  0  0
    3.4424    2.4754    2.1257 C   0  0  0  0  0  0  0  0  0  0  0  0
    4.6839    2.2109    2.6887 C   0  0  0  0  0  0  0  0  0  0  0  0
    4.8113    1.2296    3.6540 C   0  0  0  0  0  0  0  0  0  0  0  0
    6.0531    0.9585    4.2239 O   0  0  0  0  0  0  0  0  0  0  0  0
    3.6897    0.5432    4.0257 C   0  0  0  0  0  0  0  0  0  0  0  0
    2.4626    0.8013    3.4730 C   0  0  0  0  0  0  0  0  0  0  0  0
    1.8210    1.4924   -0.2732 N   0  0  0  0  0  0  0  0  0  0  0  0
    2.6930    0.4408   -0.6268 C   0  0  0  0  0  0  0  0  0  0  0  0
    2.4755   -0.6901   -0.0662 O   0  0  0  0  0  0  0  0  0  0  0  0
    3.8300    0.4918   -1.5729 C   0  0  2  0  0  0  0  0  0  0  0  0
    3.2838    0.6677   -2.9496 C   0  0  0  0  0  0  0  0  0  0  0  0
    3.6960   -0.4875   -3.7764 C   0  0  0  0  0  0  0  0  0  0  0  0
    4.1648   -1.5386   -2.7929 C   0  0  0  0  0  0  0  0  0  0  0  0
    4.4955   -0.8152   -1.5965 N   0  0  0  0  0  0  0  0  0  0  0  0
    5.3597   -1.2890   -0.5728 C   0  0  0  0  0  0  0  0  0  0  0  0
    5.6184   -0.4731    0.3783 O   0  0  0  0  0  0  0  0  0  0  0  0
    5.9762   -2.6180   -0.5023 C   0  0  1  0  0  0  0  0  0  0  0  0
    5.2876   -3.5783   -1.3352 N   0  0  0  0  0  0  0  0  0  0  0  0
    7.4254   -2.6420   -0.9487 C   0  0  0  0  0  0  0  0  0  0  0  0
    8.3096   -1.7731   -0.1762 C   0  0  0  0  0  0  0  0  0  0  0  0
    8.9172   -2.2257    0.9662 C   0  0  0  0  0  0  0  0  0  0  0  0
    9.7451   -1.4082    1.6823 C   0  0  0  0  0  0  0  0  0  0  0  0
    9.9822   -0.1142    1.2643 C   0  0  0  0  0  0  0  0  0  0  0  0
   10.8396    0.6869    2.0314 O   0  0  0  0  0  0  0  0  0  0  0  0
    9.3701    0.3488    0.1090 C   0  0  0  0  0  0  0  0  0  0  0  0
    8.5331   -0.4903   -0.6059 C   0  0  0  0  0  0  0  0  0  0  0  0
   -7.4242   -0.3943    0.9458 C   0  0  0  0  0  0  0  0  0  0  0  0
   -7.2957    1.1362    0.7866 C   0  0  0  0  0  0  0  0  0  0  0  0
   -7.9570   -0.8925   -0.3572 C   0  0  0  0  0  0  0  0  0  0  0  0
   -8.4728   -0.5382    2.0386 C   0  0  0  0  0  0  0  0  0  0  0  0
   -6.2555   -3.8513    3.0640 H   0  0  0  0  0  0  0  0  0  0  0  0
   -7.6602   -3.4868    2.0750 H   0  0  0  0  0  0  0  0  0  0  0  0
   -7.0815   -2.3434    3.4241 H   0  0  0  0  0  0  0  0  0  0  0  0
   -4.8483   -2.4162    2.0206 H   0  0  0  0  0  0  0  0  0  0  0  0
   -5.3671   -4.1637    0.6831 H   0  0  0  0  0  0  0  0  0  0  0  0
   -6.7926   -3.4783   -0.0860 H   0  0  0  0  0  0  0  0  0  0  0  0
   -5.0874   -2.8051   -0.4099 H   0  0  0  0  0  0  0  0  0  0  0  0
   -5.7829   -0.3703    2.2714 H   0  0  0  0  0  0  0  0  0  0  0  0
   -5.3302   -0.7525   -0.6213 H   0  0  0  0  0  0  0  0  0  0  0  0
   -3.0343    2.1067   -0.1120 H   0  0  0  0  0  0  0  0  0  0  0  0
   -3.2618   -0.2479   -2.0217 H   0  0  0  0  0  0  0  0  0  0  0  0
   -2.1633    1.1070   -2.2333 H   0  0  0  0  0  0  0  0  0  0  0  0
   -3.1502    3.4137   -1.9461 H   0  0  0  0  0  0  0  0  0  0  0  0
   -4.8378    4.9121   -2.9168 H   0  0  0  0  0  0  0  0  0  0  0  0
   -7.0815    4.4419   -4.9114 H   0  0  0  0  0  0  0  0  0  0  0  0
   -7.3077    1.6036   -3.7530 H   0  0  0  0  0  0  0  0  0  0  0  0
   -5.6094    0.0988   -2.7878 H   0  0  0  0  0  0  0  0  0  0  0  0
   -1.5078   -0.2475    0.7693 H   0  0  0  0  0  0  0  0  0  0  0  0
    0.7703    0.1777    0.9466 H   0  0  0  0  0  0  0  0  0  0  0  0
    0.9723    3.1365    1.6049 H   0  0  0  0  0  0  0  0  0  0  0  0
    0.2166    1.9233    2.6779 H   0  0  0  0  0  0  0  0  0  0  0  0
    3.4156    3.2583    1.3729 H   0  0  0  0  0  0  0  0  0  0  0  0
    5.5582    2.7683    2.3791 H   0  0  0  0  0  0  0  0  0  0  0  0
    6.6609    0.2612    3.7993 H   0  0  0  0  0  0  0  0  0  0  0  0
    3.8245   -0.2218    4.7870 H   0  0  0  0  0  0  0  0  0  0  0  0
    1.5925    0.2254    3.8026 H   0  0  0  0  0  0  0  0  0  0  0  0
    1.9326    2.4272   -0.6740 H   0  0  0  0  0  0  0  0  0  0  0  0
    4.5536    1.2985   -1.3097 H   0  0  0  0  0  0  0  0  0  0  0  0
    2.1600    0.7312   -2.8804 H   0  0  0  0  0  0  0  0  0  0  0  0
    3.6606    1.6172   -3.4199 H   0  0  0  0  0  0  0  0  0  0  0  0
    2.7963   -0.9013   -4.3026 H   0  0  0  0  0  0  0  0  0  0  0  0
    4.4912   -0.1759   -4.4848 H   0  0  0  0  0  0  0  0  0  0  0  0
    3.3785   -2.2660   -2.5590 H   0  0  0  0  0  0  0  0  0  0  0  0
    5.0853   -2.0057   -3.2528 H   0  0  0  0  0  0  0  0  0  0  0  0
    5.9592   -2.9588    0.5580 H   0  0  0  0  0  0  0  0  0  0  0  0
    5.9083   -4.3710   -1.6414 H   0  0  0  0  0  0  0  0  0  0  0  0
    4.4962   -3.9535   -0.7476 H   0  0  0  0  0  0  0  0  0  0  0  0
    7.4807   -2.4283   -2.0427 H   0  0  0  0  0  0  0  0  0  0  0  0
    7.7802   -3.6939   -0.8538 H   0  0  0  0  0  0  0  0  0  0  0  0
    8.7641   -3.2443    1.3411 H   0  0  0  0  0  0  0  0  0  0  0  0
   10.2434   -1.7539    2.6078 H   0  0  0  0  0  0  0  0  0  0  0  0
   11.0187    1.6280    1.7371 H   0  0  0  0  0  0  0  0  0  0  0  0
    9.5751    1.3764   -0.1985 H   0  0  0  0  0  0  0  0  0  0  0  0
    8.0625   -0.0936   -1.5177 H   0  0  0  0  0  0  0  0  0  0  0  0
   -6.4532    1.4205    0.1483 H   0  0  0  0  0  0  0  0  0  0  0  0
   -8.2285    1.4820    0.2774 H   0  0  0  0  0  0  0  0  0  0  0  0
   -7.2863    1.6274    1.7908 H   0  0  0  0  0  0  0  0  0  0  0  0
   -8.4553   -0.0729   -0.9539 H   0  0  0  0  0  0  0  0  0  0  0  0
   -7.2243   -1.3306   -1.0417 H   0  0  0  0  0  0  0  0  0  0  0  0
   -8.8036   -1.6002   -0.1279 H   0  0  0  0  0  0  0  0  0  0  0  0
   -9.2687    0.2266    1.7928 H   0  0  0  0  0  0  0  0  0  0  0  0
   -8.9788   -1.5003    2.0135 H   0  0  0  0  0  0  0  0  0  0  0  0
   -8.0657   -0.2181    3.0016 H   0  0  0  0  0  0  0  0  0  0  0  0
  1  2  1  0
  2  3  1  0
  2  4  1  0
  4  5  1  0
  5  6  1  0
  6  7  2  0
  6  8  1  0
  8  9  1  0
  9 10  1  0
 10 11  2  0
 11 12  1  0
 12 13  2  0
 13 14  1  0
 13 15  1  0
 15 16  2  0
  8 17  1  0
 17 18  1  0
 18 19  2  0
 18 20  1  0
 20 21  1  0
 21 22  1  0
 22 23  2  0
 23 24  1  0
 24 25  2  0
 25 26  1  0
 25 27  1  0
 27 28  2  0
 20 29  1  0
 29 30  1  0
 30 31  2  0
 30 32  1  0
 32 33  1  0
 33 34  1  0
 34 35  1  0
 35 36  1  0
 36 37  1  0
 37 38  2  0
 37 39  1  0
 39 40  1  0
 39 41  1  0
 41 42  1  0
 42 43  2  0
 43 44  1  0
 44 45  2  0
 45 46  1  0
 45 47  1  0
 47 48  2  0
  4 49  1  0
 49 50  1  0
 49 51  1  0
 49 52  1  0
 16 10  1  0
 28 22  1  0
 36 32  1  0
 48 42  1  0
  1 53  1  0
  1 54  1  0
  1 55  1  0
  2 56  1  0
  3 57  1  0
  3 58  1  0
  3 59  1  0
  4 60  1  1
  5 61  1  0
  8 62  1  6
  9 63  1  0
  9 64  1  0
 11 65  1  0
 12 66  1  0
 14 67  1  0
 15 68  1  0
 16 69  1  0
 17 70  1  0
 20 71  1  1
 21 72  1  0
 21 73  1  0
 23 74  1  0
 24 75  1  0
 26 76  1  0
 27 77  1  0
 28 78  1  0
 29 79  1  0
 32 80  1  1
 33 81  1  0
 33 82  1  0
 34 83  1  0
 34 84  1  0
 35 85  1  0
 35 86  1  0
 39 87  1  1
 40 88  1  0
 40 89  1  0
 41 90  1  0
 41 91  1  0
 43 92  1  0
 44 93  1  0
 46 94  1  0
 47 95  1  0
 48 96  1  0
 50 97  1  0
 50 98  1  0
 50 99  1  0
 51100  1  0
 51101  1  0
 51102  1  0
 52103  1  0
 52104  1  0
 52105  1  0
M  END
$$$$
