[H]N(C(=O)[C@]([H])(C(=O)C([H])([H])[H])C([H])([H])[H])[C@]([H])(C(=O)N([H])[C@]([H])(C(=O)N([H])[C@]([H])(C(=O)N([H])[C@]([H])(C(=O)N([H])[C@]([H])(C(=O)N([H])[C@]([H])(C(=O)N([H])[C@]([H])(C(=O)N1C([H])([H])C([H])([H])C([H])([H])[C@]1([H])C(=O)N(C([H])([H])[H])C([H])([H])[H])C([H])([H])C([H])(C([H])([H])[H])C([H])([H])[H])C([H])([H])[H])C([H])([H])[H])C([H])([H])[H])C([H])([H])[H])C([H])([H])[H])C([H])([H])[H]
     RDKit          3D

116116  0  0  0  0  0  0  0  0999 V2000
   -5.3405   -3.4307    0.6723 C   0  0  0  0  0  0  0  0  0  0  0  0
   -5.8459   -2.3775   -0.3440 C   0  0  0  0  0  0  0  0  0  0  0  0
   -7.0265   -3.0935   -1.0263 C   0  0  0  0  0  0  0  0  0  0  0  0
   -6.2779   -1.1676    0.3694 C   0  0  0  0  0  0  0  0  0  0  0  0
   -6.7843    0.0019   -0.4032 C   0  0  2  0  0  0  0  0  0  0  0  0
   -5.8536    0.6900   -1.2511 N   0  0  0  0  0  0  0  0  0  0  0  0
   -4.5054    0.6087   -1.4609 C   0  0  0  0  0  0  0  0  0  0  0  0
   -3.7330   -0.1644   -0.8601 O   0  0  0  0  0  0  0  0  0  0  0  0
   -3.7826    1.4727   -2.4858 C   0  0  2  0  0  0  0  0  0  0  0  0
   -4.7032    2.2421   -3.3539 C   0  0  0  0  0  0  0  0  0  0  0  0
   -2.8151    0.6617   -3.1770 N   0  0  0  0  0  0  0  0  0  0  0  0
   -1.4020    0.6958   -2.9132 C   0  0  0  0  0  0  0  0  0  0  0  0
   -0.8785    1.4301   -2.0842 O   0  0  0  0  0  0  0  0  0  0  0  0
   -0.5843   -0.2556   -3.7349 C   0  0  2  0  0  0  0  0  0  0  0  0
   -1.2331   -1.5951   -3.9007 C   0  0  0  0  0  0  0  0  0  0  0  0
    0.7303   -0.3971   -3.2125 N   0  0  0  0  0  0  0  0  0  0  0  0
    0.9733   -0.6643   -1.8425 C   0  0  0  0  0  0  0  0  0  0  0  0
    0.1043   -0.8064   -0.9553 O   0  0  0  0  0  0  0  0  0  0  0  0
    2.3998   -0.7856   -1.3932 C   0  0  2  0  0  0  0  0  0  0  0  0
    2.8364   -2.2417   -1.6618 C   0  0  0  0  0  0  0  0  0  0  0  0
    2.4562   -0.5298    0.0295 N   0  0  0  0  0  0  0  0  0  0  0  0
    3.3885    0.4430    0.4546 C   0  0  0  0  0  0  0  0  0  0  0  0
    4.1032    1.0267   -0.3902 O   0  0  0  0  0  0  0  0  0  0  0  0
    3.4790    0.7276    1.9395 C   0  0  2  0  0  0  0  0  0  0  0  0
    2.1968    1.1364    2.5310 C   0  0  0  0  0  0  0  0  0  0  0  0
    4.5566    1.7082    2.0576 N   0  0  0  0  0  0  0  0  0  0  0  0
    5.8989    1.3414    2.0757 C   0  0  0  0  0  0  0  0  0  0  0  0
    6.2131    0.0948    1.9777 O   0  0  0  0  0  0  0  0  0  0  0  0
    7.0707    2.2527    2.1947 C   0  0  2  0  0  0  0  0  0  0  0  0
    6.7592    3.6894    1.9771 C   0  0  0  0  0  0  0  0  0  0  0  0
    8.0498    1.7263    1.2626 N   0  0  0  0  0  0  0  0  0  0  0  0
    9.0038    0.7206    1.5359 C   0  0  0  0  0  0  0  0  0  0  0  0
    9.0307    0.2194    2.6918 O   0  0  0  0  0  0  0  0  0  0  0  0
    9.9427    0.2681    0.4672 C   0  0  2  0  0  0  0  0  0  0  0  0
    9.1067   -0.2322   -0.7133 C   0  0  0  0  0  0  0  0  0  0  0  0
   10.7350   -0.8294    0.9270 N   0  0  0  0  0  0  0  0  0  0  0  0
   12.1477   -0.9209    0.8772 C   0  0  0  0  0  0  0  0  0  0  0  0
   12.7809    0.0431    0.4016 O   0  0  0  0  0  0  0  0  0  0  0  0
   12.8212   -2.1495    1.3870 C   0  0  1  0  0  0  0  0  0  0  0  0
   12.2147   -3.3432    0.6523 C   0  0  0  0  0  0  0  0  0  0  0  0
   14.2517   -2.0797    0.9775 C   0  0  0  0  0  0  0  0  0  0  0  0
   15.1116   -0.9309    1.3887 C   0  0  0  0  0  0  0  0  0  0  0  0
   14.7407   -2.9435    0.3135 O   0  0  0  0  0  0  0  0  0  0  0  0
   -7.4958    0.9302    0.4726 C   0  0  0  0  0  0  0  0  0  0  0  0
   -6.9277    2.0548    0.6907 O   0  0  0  0  0  0  0  0  0  0  0  0
   -8.7433    0.6834    1.0791 N   0  0  0  0  0  0  0  0  0  0  0  0
   -9.5994   -0.4968    0.9544 C   0  0  0  0  0  0  0  0  0  0  0  0
   -9.8329   -0.8116    2.4248 C   0  0  0  0  0  0  0  0  0  0  0  0
   -9.6872    0.5216    3.1493 C   0  0  0  0  0  0  0  0  0  0  0  0
   -9.4554    1.5127    2.0112 C   0  0  2  0  0  0  0  0  0  0  0  0
  -10.7627    1.9392    1.5365 C   0  0  0  0  0  0  0  0  0  0  0  0
  -11.7611    1.9473    2.3733 O   0  0  0  0  0  0  0  0  0  0  0  0
  -11.0506    2.3545    0.2301 N   0  0  0  0  0  0  0  0  0  0  0  0
  -10.1665    2.4907   -0.8787 C   0  0  0  0  0  0  0  0  0  0  0  0
  -12.4782    2.6953   -0.0408 C   0  0  0  0  0  0  0  0  0  0  0  0
   -4.5519   -2.9719    1.3204 H   0  0  0  0  0  0  0  0  0  0  0  0
   -4.8593   -4.2723    0.1372 H   0  0  0  0  0  0  0  0  0  0  0  0
   -6.2083   -3.8145    1.2153 H   0  0  0  0  0  0  0  0  0  0  0  0
   -5.1075   -2.2766   -1.0971 H   0  0  0  0  0  0  0  0  0  0  0  0
   -7.9071   -3.1647   -0.3790 H   0  0  0  0  0  0  0  0  0  0  0  0
   -6.6665   -4.1386   -1.1973 H   0  0  0  0  0  0  0  0  0  0  0  0
   -7.1992   -2.6741   -2.0306 H   0  0  0  0  0  0  0  0  0  0  0  0
   -5.3823   -0.7683    0.9735 H   0  0  0  0  0  0  0  0  0  0  0  0
   -7.0007   -1.4536    1.1687 H   0  0  0  0  0  0  0  0  0  0  0  0
   -7.5352   -0.4334   -1.1853 H   0  0  0  0  0  0  0  0  0  0  0  0
   -6.3591    1.4564   -1.8739 H   0  0  0  0  0  0  0  0  0  0  0  0
   -3.1682    2.2123   -1.8837 H   0  0  0  0  0  0  0  0  0  0  0  0
   -5.4536    1.5806   -3.8782 H   0  0  0  0  0  0  0  0  0  0  0  0
   -5.2875    2.9502   -2.7150 H   0  0  0  0  0  0  0  0  0  0  0  0
   -4.1502    2.8855   -4.0904 H   0  0  0  0  0  0  0  0  0  0  0  0
   -3.1999    0.0210   -3.9167 H   0  0  0  0  0  0  0  0  0  0  0  0
   -0.5083    0.2563   -4.7557 H   0  0  0  0  0  0  0  0  0  0  0  0
   -0.5830   -2.4502   -3.6070 H   0  0  0  0  0  0  0  0  0  0  0  0
   -2.1460   -1.6965   -3.2547 H   0  0  0  0  0  0  0  0  0  0  0  0
   -1.5076   -1.7683   -4.9813 H   0  0  0  0  0  0  0  0  0  0  0  0
    1.5400   -0.2999   -3.8572 H   0  0  0  0  0  0  0  0  0  0  0  0
    3.0004   -0.0916   -1.9991 H   0  0  0  0  0  0  0  0  0  0  0  0
    3.1268   -2.2776   -2.7264 H   0  0  0  0  0  0  0  0  0  0  0  0
    2.0091   -2.9479   -1.4434 H   0  0  0  0  0  0  0  0  0  0  0  0
    3.7033   -2.4535   -1.0451 H   0  0  0  0  0  0  0  0  0  0  0  0
    1.8634   -1.0149    0.7159 H   0  0  0  0  0  0  0  0  0  0  0  0
    3.8641   -0.2110    2.4342 H   0  0  0  0  0  0  0  0  0  0  0  0
    1.9699    0.4859    3.4162 H   0  0  0  0  0  0  0  0  0  0  0  0
    2.1205    2.2026    2.8308 H   0  0  0  0  0  0  0  0  0  0  0  0
    1.3418    0.9782    1.8220 H   0  0  0  0  0  0  0  0  0  0  0  0
    4.2653    2.7050    2.1306 H   0  0  0  0  0  0  0  0  0  0  0  0
    7.4575    2.0422    3.2375 H   0  0  0  0  0  0  0  0  0  0  0  0
    6.6795    3.8647    0.8596 H   0  0  0  0  0  0  0  0  0  0  0  0
    7.6086    4.3389    2.3326 H   0  0  0  0  0  0  0  0  0  0  0  0
    5.8077    4.0122    2.3980 H   0  0  0  0  0  0  0  0  0  0  0  0
    8.0673    2.1352    0.2744 H   0  0  0  0  0  0  0  0  0  0  0  0
   10.5551    1.1371    0.1637 H   0  0  0  0  0  0  0  0  0  0  0  0
    8.2465    0.4718   -0.8823 H   0  0  0  0  0  0  0  0  0  0  0  0
    9.7213   -0.2727   -1.6408 H   0  0  0  0  0  0  0  0  0  0  0  0
    8.6803   -1.2237   -0.4946 H   0  0  0  0  0  0  0  0  0  0  0  0
   10.2078   -1.6463    1.3452 H   0  0  0  0  0  0  0  0  0  0  0  0
   12.7191   -2.2994    2.4699 H   0  0  0  0  0  0  0  0  0  0  0  0
   11.1399   -3.3885    0.9155 H   0  0  0  0  0  0  0  0  0  0  0  0
   12.3062   -3.1884   -0.4593 H   0  0  0  0  0  0  0  0  0  0  0  0
   12.6777   -4.2894    0.9941 H   0  0  0  0  0  0  0  0  0  0  0  0
   16.1139   -1.2526    1.7204 H   0  0  0  0  0  0  0  0  0  0  0  0
   14.5990   -0.3712    2.2075 H   0  0  0  0  0  0  0  0  0  0  0  0
   15.2755   -0.2354    0.5136 H   0  0  0  0  0  0  0  0  0  0  0  0
  -10.6148   -0.1755    0.5879 H   0  0  0  0  0  0  0  0  0  0  0  0
   -9.1873   -1.2991    0.3644 H   0  0  0  0  0  0  0  0  0  0  0  0
   -9.0674   -1.4964    2.8276 H   0  0  0  0  0  0  0  0  0  0  0  0
  -10.8603   -1.1917    2.6223 H   0  0  0  0  0  0  0  0  0  0  0  0
  -10.6104    0.7879    3.6782 H   0  0  0  0  0  0  0  0  0  0  0  0
   -8.8304    0.5268    3.8391 H   0  0  0  0  0  0  0  0  0  0  0  0
   -8.8263    2.3674    2.3763 H   0  0  0  0  0  0  0  0  0  0  0  0
  -10.6990    3.0948   -1.6870 H   0  0  0  0  0  0  0  0  0  0  0  0
   -9.2638    3.1072   -0.6515 H   0  0  0  0  0  0  0  0  0  0  0  0
   -9.8926    1.5549   -1.3877 H   0  0  0  0  0  0  0  0  0  0  0  0
  -12.9930    1.7279   -0.2001 H   0  0  0  0  0  0  0  0  0  0  0  0
  -12.5622    3.3840   -0.8951 H   0  0  0  0  0  0  0  0  0  0  0  0
  -12.8553    3.1397    0.8922 H   0  0  0  0  0  0  0  0  0  0  0  0
  1  2  1  0
  2  3  1  0
  2  4  1  0
  4  5  1  0
  5  6  1  0
  6  7  1  0
  7  8  2  0
  7  9  1  0
  9 10  1  0
  9 11  1  0
 11 12  1  0
 12 13  2  0
 12 14  1  0
 14 15  1  0
 14 16  1  0
 16 17  1  0
 17 18  2  0
 17 19  1  0
 19 20  1  0
 19 21  1  0
 21 22  1  0
 22 23  2  0
 22 24  1  0
 24 25  1  0
 24 26  1  0
 26 27  1  0
 27 28  2  0
 27 29  1  0
 29 30  1  0
 29 31  1  0
 31 32  1  0
 32 33  2  0
 32 34  1  0
 34 35  1  0
 34 36  1  0
 36 37  1  0
 37 38  2  0
 37 39  1  0
 39 40  1  0
 39 41  1  0
 41 42  1  0
 41 43  2  0
  5 44  1  0
 44 45  2  0
 44 46  1  0
 46 47  1  0
 47 48  1  0
 48 49  1  0
 49 50  1  0
 50 51  1  0
 51 52  2  0
 51 53  1  0
 53 54  1  0
 53 55  1  0
 50 46  1  0
  1 56  1  0
  1 57  1  0
  1 58  1  0
  2 59  1  0
  3 60  1  0
  3 61  1  0
  3 62  1  0
  4 63  1  0
  4 64  1  0
  5 65  1  6
  6 66  1  0
  9 67  1  1
 10 68  1  0
 10 69  1  0
 10 70  1  0
 11 71  1  0
 14 72  1  6
 15 73  1  0
 15 74  1  0
 15 75  1  0
 16 76  1  0
 19 77  1  6
 20 78  1  0
 20 79  1  0
 20 80  1  0
 21 81  1  0
 24 82  1  1
 25 83  1  0
 25 84  1  0
 25 85  1  0
 26 86  1  0
 29 87  1  1
 30 88  1  0
 30 89  1  0
 30 90  1  0
 31 91  1  0
 34 92  1  6
 35 93  1  0
 35 94  1  0
 35 95  1  0
 36 96  1  0
 39 97  1  1
 40 98  1  0
 40 99  1  0
 40100  1  0
 42101  1  0
 42102  1  0
 42103  1  0
 47104  1  0
 47105  1  0
 48106  1  0
 48107  1  0
 49108  1  0
 49109  1  0
 50110  1  1
 54111  1  0
 54112  1  0
 54113  1  0
 55114  1  0
 55115  1  0
 55116  1  0
M  END
$$$$
[H]N(C(=O)[C@@]([H])(N([H])C(=O)[C@@]([H])(N([H])C(=O)[C@@]([H])(C(=O)C([H])([H])[H])C([H])([H])[H])C([H])([H])[H])C([H])([H])[H])[C@]([H])(C(=O)N([H])[C@]([H])(C(=O)N([H])[C@]([H])(C(=O)N([H])[C@]([H])(C(=O)N([H])[C@]([H])(C(=O)N1C([H])([H])C([H])([H])C([H])([H])[C@]1([H])C(=O)N(C([H])([H])[H])C([H])([H])[H])C([H])([H])C([H])(C([H])([H])[H])C([H])([H])[H])C([H])([H])[H])C([H])([H])[H])C([H])([H])[H])C([H])([H])[H]
     RDKit          3D

116116  0  0  0  0  0  0  0  0999 V2000
   -5.1288   -2.6582    0.1981 C   0  0  0  0  0  0  0  0  0  0  0  0
   -5.6951   -1.3962   -0.4195 C   0  0  0  0  0  0  0  0  0  0  0  0
   -6.0929   -1.6919   -1.8712 C   0  0  0  0  0  0  0  0  0  0  0  0
   -6.7575   -0.7856    0.4043 C   0  0  0  0  0  0  0  0  0  0  0  0
   -7.4444    0.4629   -0.1943 C   0  0  2  0  0  0  0  0  0  0  0  0
   -6.4509    1.4530   -0.4367 N   0  0  0  0  0  0  0  0  0  0  0  0
   -5.3448    1.7300    0.2958 C   0  0  0  0  0  0  0  0  0  0  0  0
   -5.1415    1.2053    1.4444 O   0  0  0  0  0  0  0  0  0  0  0  0
   -4.1441    2.6190   -0.0728 C   0  0  2  0  0  0  0  0  0  0  0  0
   -4.3066    2.9344   -1.4966 C   0  0  0  0  0  0  0  0  0  0  0  0
   -3.1392    1.4885    0.1275 N   0  0  0  0  0  0  0  0  0  0  0  0
   -2.3313    0.9166   -0.8001 C   0  0  0  0  0  0  0  0  0  0  0  0
   -2.0345    1.1597   -1.9782 O   0  0  0  0  0  0  0  0  0  0  0  0
   -1.6250   -0.3362   -0.2301 C   0  0  2  0  0  0  0  0  0  0  0  0
   -1.6755   -0.2801    1.2815 C   0  0  0  0  0  0  0  0  0  0  0  0
   -0.3583   -0.4961   -0.7622 N   0  0  0  0  0  0  0  0  0  0  0  0
    0.6217   -1.2915   -0.2348 C   0  0  0  0  0  0  0  0  0  0  0  0
    0.6590   -2.0213    0.7551 O   0  0  0  0  0  0  0  0  0  0  0  0
    1.9732   -1.2499   -0.9584 C   0  0  2  0  0  0  0  0  0  0  0  0
    2.2309   -2.6199   -1.5773 C   0  0  0  0  0  0  0  0  0  0  0  0
    2.8408   -0.7265   -0.0480 N   0  0  0  0  0  0  0  0  0  0  0  0
    4.0895   -0.6587    0.4661 C   0  0  0  0  0  0  0  0  0  0  0  0
    5.0365   -1.3973    0.0834 O   0  0  0  0  0  0  0  0  0  0  0  0
    4.2212    0.4303    1.5411 C   0  0  2  0  0  0  0  0  0  0  0  0
    3.5878    1.6502    0.7386 C   0  0  0  0  0  0  0  0  0  0  0  0
    5.5265    0.7946    1.8336 N   0  0  0  0  0  0  0  0  0  0  0  0
    6.4287    1.1546    0.7533 C   0  0  0  0  0  0  0  0  0  0  0  0
    6.0616    1.1017   -0.4331 O   0  0  0  0  0  0  0  0  0  0  0  0
    7.8226    1.6210    1.0168 C   0  0  2  0  0  0  0  0  0  0  0  0
    7.7936    3.1475    1.1309 C   0  0  0  0  0  0  0  0  0  0  0  0
    8.5951    1.2273   -0.1989 N   0  0  0  0  0  0  0  0  0  0  0  0
    9.9171    0.8795   -0.0255 C   0  0  0  0  0  0  0  0  0  0  0  0
   10.4175    0.9657    1.1609 O   0  0  0  0  0  0  0  0  0  0  0  0
   10.8936    0.3885   -1.0626 C   0  0  2  0  0  0  0  0  0  0  0  0
   10.2640   -0.2259   -2.2438 C   0  0  0  0  0  0  0  0  0  0  0  0
   11.7587   -0.4889   -0.3614 N   0  0  0  0  0  0  0  0  0  0  0  0
   12.5873   -1.3299    0.3113 C   0  0  0  0  0  0  0  0  0  0  0  0
   12.3240   -1.9226    1.4061 O   0  0  0  0  0  0  0  0  0  0  0  0
   14.0126   -1.6407   -0.2131 C   0  0  2  0  0  0  0  0  0  0  0  0
   14.4230   -2.9287    0.4066 C   0  0  0  0  0  0  0  0  0  0  0  0
   14.8032   -0.5592    0.4682 C   0  0  0  0  0  0  0  0  0  0  0  0
   14.5028    0.8791    0.3265 C   0  0  0  0  0  0  0  0  0  0  0  0
   15.7469   -0.8583    1.1578 O   0  0  0  0  0  0  0  0  0  0  0  0
   -8.5836    0.7135    0.6043 C   0  0  0  0  0  0  0  0  0  0  0  0
   -8.6872    1.7102    1.3975 O   0  0  0  0  0  0  0  0  0  0  0  0
   -9.7045   -0.2127    0.5364 N   0  0  0  0  0  0  0  0  0  0  0  0
   -9.9114   -1.2836   -0.3475 C   0  0  0  0  0  0  0  0  0  0  0  0
  -10.3779   -2.4092    0.5960 C   0  0  0  0  0  0  0  0  0  0  0  0
  -10.9458   -1.6918    1.7798 C   0  0  0  0  0  0  0  0  0  0  0  0
  -10.7764   -0.2107    1.4609 C   0  0  2  0  0  0  0  0  0  0  0  0
  -12.0437    0.2667    0.9401 C   0  0  0  0  0  0  0  0  0  0  0  0
  -13.1348   -0.2540    1.5144 O   0  0  0  0  0  0  0  0  0  0  0  0
  -12.2945    1.2141   -0.0621 N   0  0  0  0  0  0  0  0  0  0  0  0
  -11.4042    1.9273   -0.8914 C   0  0  0  0  0  0  0  0  0  0  0  0
  -13.7552    1.5610   -0.2164 C   0  0  0  0  0  0  0  0  0  0  0  0
   -4.2494   -2.4212    0.8556 H   0  0  0  0  0  0  0  0  0  0  0  0
   -4.7490   -3.3852   -0.5343 H   0  0  0  0  0  0  0  0  0  0  0  0
   -5.9190   -3.2149    0.7504 H   0  0  0  0  0  0  0  0  0  0  0  0
   -4.8732   -0.6989   -0.5351 H   0  0  0  0  0  0  0  0  0  0  0  0
   -6.9981   -2.2105   -1.9455 H   0  0  0  0  0  0  0  0  0  0  0  0
   -5.2626   -2.4017   -2.2156 H   0  0  0  0  0  0  0  0  0  0  0  0
   -5.9817   -0.8106   -2.4957 H   0  0  0  0  0  0  0  0  0  0  0  0
   -6.3725   -0.4750    1.4394 H   0  0  0  0  0  0  0  0  0  0  0  0
   -7.5042   -1.5557    0.6449 H   0  0  0  0  0  0  0  0  0  0  0  0
   -7.7564    0.1294   -1.2406 H   0  0  0  0  0  0  0  0  0  0  0  0
   -6.6312    2.0849   -1.2846 H   0  0  0  0  0  0  0  0  0  0  0  0
   -3.8306    3.4138    0.5062 H   0  0  0  0  0  0  0  0  0  0  0  0
   -3.3541    3.1143   -2.0423 H   0  0  0  0  0  0  0  0  0  0  0  0
   -4.8259    2.1146   -2.0475 H   0  0  0  0  0  0  0  0  0  0  0  0
   -4.9323    3.8712   -1.6049 H   0  0  0  0  0  0  0  0  0  0  0  0
   -3.1537    1.2264    1.1475 H   0  0  0  0  0  0  0  0  0  0  0  0
   -2.2931   -1.2494   -0.4333 H   0  0  0  0  0  0  0  0  0  0  0  0
   -1.0694   -1.0586    1.7848 H   0  0  0  0  0  0  0  0  0  0  0  0
   -1.3790    0.6738    1.7192 H   0  0  0  0  0  0  0  0  0  0  0  0
   -2.7276   -0.5628    1.6251 H   0  0  0  0  0  0  0  0  0  0  0  0
   -0.1244    0.0596   -1.6434 H   0  0  0  0  0  0  0  0  0  0  0  0
    1.8380   -0.5564   -1.8670 H   0  0  0  0  0  0  0  0  0  0  0  0
    2.6352   -2.4004   -2.6591 H   0  0  0  0  0  0  0  0  0  0  0  0
    1.2676   -3.1247   -1.8345 H   0  0  0  0  0  0  0  0  0  0  0  0
    2.9801   -3.2229   -1.1331 H   0  0  0  0  0  0  0  0  0  0  0  0
    2.1809    0.0201    0.6152 H   0  0  0  0  0  0  0  0  0  0  0  0
    3.5552    0.2838    2.3736 H   0  0  0  0  0  0  0  0  0  0  0  0
    4.2893    2.4559    0.7472 H   0  0  0  0  0  0  0  0  0  0  0  0
    3.4243    1.3089   -0.3276 H   0  0  0  0  0  0  0  0  0  0  0  0
    2.6608    1.9115    1.1812 H   0  0  0  0  0  0  0  0  0  0  0  0
    5.8932    0.8616    2.8240 H   0  0  0  0  0  0  0  0  0  0  0  0
    8.2114    1.2169    1.9339 H   0  0  0  0  0  0  0  0  0  0  0  0
    6.7307    3.4219    1.4187 H   0  0  0  0  0  0  0  0  0  0  0  0
    8.0372    3.5782    0.1570 H   0  0  0  0  0  0  0  0  0  0  0  0
    8.4622    3.4561    1.9421 H   0  0  0  0  0  0  0  0  0  0  0  0
    8.0714    1.2255   -1.1073 H   0  0  0  0  0  0  0  0  0  0  0  0
   11.4307    1.3300   -1.3291 H   0  0  0  0  0  0  0  0  0  0  0  0
   10.3153   -1.3097   -2.2727 H   0  0  0  0  0  0  0  0  0  0  0  0
    9.1621    0.0260   -2.2429 H   0  0  0  0  0  0  0  0  0  0  0  0
   10.7422    0.1485   -3.2110 H   0  0  0  0  0  0  0  0  0  0  0  0
   10.7582   -0.8032    0.4836 H   0  0  0  0  0  0  0  0  0  0  0  0
   14.0090   -1.6103   -1.2875 H   0  0  0  0  0  0  0  0  0  0  0  0
   14.1668   -2.8247    1.5120 H   0  0  0  0  0  0  0  0  0  0  0  0
   15.4662   -3.1704    0.1983 H   0  0  0  0  0  0  0  0  0  0  0  0
   13.7507   -3.7744    0.0706 H   0  0  0  0  0  0  0  0  0  0  0  0
   13.8508    1.2512    1.1649 H   0  0  0  0  0  0  0  0  0  0  0  0
   15.4286    1.4344    0.2470 H   0  0  0  0  0  0  0  0  0  0  0  0
   13.9164    1.0634   -0.6214 H   0  0  0  0  0  0  0  0  0  0  0  0
  -10.8175   -1.0949   -1.0102 H   0  0  0  0  0  0  0  0  0  0  0  0
   -9.0759   -1.5692   -0.9398 H   0  0  0  0  0  0  0  0  0  0  0  0
   -9.4723   -2.9461    0.9610 H   0  0  0  0  0  0  0  0  0  0  0  0
  -11.1404   -3.0458    0.1154 H   0  0  0  0  0  0  0  0  0  0  0  0
  -12.0226   -1.8864    1.9061 H   0  0  0  0  0  0  0  0  0  0  0  0
  -10.4109   -1.9545    2.7106 H   0  0  0  0  0  0  0  0  0  0  0  0
  -10.5052    0.3719    2.4171 H   0  0  0  0  0  0  0  0  0  0  0  0
  -12.0144    2.6260   -1.5970 H   0  0  0  0  0  0  0  0  0  0  0  0
  -10.7684    2.6373   -0.3434 H   0  0  0  0  0  0  0  0  0  0  0  0
  -10.7401    1.3148   -1.5629 H   0  0  0  0  0  0  0  0  0  0  0  0
  -14.2613    0.5931   -0.3713 H   0  0  0  0  0  0  0  0  0  0  0  0
  -13.8601    2.2872   -0.9812 H   0  0  0  0  0  0  0  0  0  0  0  0
  -14.0076    1.8495    0.8370 H   0  0  0  0  0  0  0  0  0  0  0  0
  1  2  1  0
  2  3  1  0
  2  4  1  0
  4  5  1  0
  5  6  1  0
  6  7  1  0
  7  8  2  0
  7  9  1  0
  9 10  1  0
  9 11  1  0
 11 12  1  0
 12 13  2  0
 12 14  1  0
 14 15  1  0
 14 16  1  0
 16 17  1  0
 17 18  2  0
 17 19  1  0
 19 20  1  0
 19 21  1  0
 21 22  1  0
 22 23  2  0
 22 24  1  0
 24 25  1  0
 24 26  1  0
 26 27  1  0
 27 28  2  0
 27 29  1  0
 29 30  1  0
 29 31  1  0
 31 32  1  0
 32 33  2  0
 32 34  1  0
 34 35  1  0
 34 36  1  0
 36 37  1  0
 37 38  2  0
 37 39  1  0
 39 40  1  0
 39 41  1  0
 41 42  1  0
 41 43  2  0
  5 44  1  0
 44 45  2  0
 44 46  1  0
 46 47  1  0
 47 48  1  0
 48 49  1  0
 49 50  1  0
 50 51  1  0
 51 52  2  0
 51 53  1  0
 53 54  1  0
 53 55  1  0
 50 46  1  0
  1 56  1  0
  1 57  1  0
  1 58  1  0
  2 59  1  0
  3 60  1  0
  3 61  1  0
  3 62  1  0
  4 63  1  0
  4 64  1  0
  5 65  1  6
  6 66  1  0
  9 67  1  1
 10 68  1  0
 10 69  1  0
 10 70  1  0
 11 71  1  0
 14 72  1  6
 15 73  1  0
 15 74  1  0
 15 75  1  0
 16 76  1  0
 19 77  1  6
 20 78  1  0
 20 79  1  0
 20 80  1  0
 21 81  1  0
 24 82  1  1
 25 83  1  0
 25 84  1  0
 25 85  1  0
 26 86  1  0
 29 87  1  1
 30 88  1  0
 30 89  1  0
 30 90  1  0
 31 91  1  0
 34 92  1  6
 35 93  1  0
 35 94  1  0
 35 95  1  0
 36 96  1  0
 39 97  1  6
 40 98  1  0
 40 99  1  0
 40100  1  0
 42101  1  0
 42102  1  0
 42103  1  0
 47104  1  0
 47105  1  0
 48106  1  0
 48107  1  0
 49108  1  0
 49109  1  0
 50110  1  1
 54111  1  0
 54112  1  0
 54113  1  0
 55114  1  0
 55115  1  0
 55116  1  0
M  END
$$$$
[H]N(C(=O)[C@]([H])(C(=O)C([H])([H])[H])C([H])([H])[H])[C@]([H])(C(=O)N([H])[C@]([H])(C(=O)N([H])[C@]([H])(C(=O)N([H])[C@]([H])(C(=O)N([H])[C@]([H])(C(=O)N([H])[C@]([H])(C(=O)N([H])[C@]([H])(C(=O)N1C([H])([H])C([H])([H])C([H])([H])[C@@]1([H])C(=O)N(C([H])([H])[H])C([H])([H])[H])C([H])([H])C([H])(C([H])([H])[H])C([H])([H])[H])C([H])([H])[H])C([H])([H])[H])C([H])([H])[H])C([H])([H])[H])C([H])([H])[H])C([H])([H])[H]
     RDKit          3D

116116  0  0  0  0  0  0  0  0999 V2000
  -10.0105   -1.0067    4.3260 C   0  0  0  0  0  0  0  0  0  0  0  0
   -9.9725   -1.1344    2.8023 C   0  0  0  0  0  0  0  0  0  0  0  0
   -9.9193   -2.6991    2.5939 C   0  0  0  0  0  0  0  0  0  0  0  0
   -8.6827   -0.5727    2.2695 C   0  0  0  0  0  0  0  0  0  0  0  0
   -8.5420   -0.6145    0.8396 C   0  0  2  0  0  0  0  0  0  0  0  0
   -7.1878   -0.2294    0.3177 N   0  0  0  0  0  0  0  0  0  0  0  0
   -6.0951   -1.0948    0.2992 C   0  0  0  0  0  0  0  0  0  0  0  0
   -6.1196   -2.2591    0.7397 O   0  0  0  0  0  0  0  0  0  0  0  0
   -4.8286   -0.6196   -0.2787 C   0  0  2  0  0  0  0  0  0  0  0  0
   -4.6501   -1.2182   -1.6929 C   0  0  0  0  0  0  0  0  0  0  0  0
   -3.6484   -1.0265    0.4625 N   0  0  0  0  0  0  0  0  0  0  0  0
   -2.4586   -0.2143    0.2987 C   0  0  0  0  0  0  0  0  0  0  0  0
   -2.5038    0.7654   -0.4742 O   0  0  0  0  0  0  0  0  0  0  0  0
   -1.2557   -0.5819    1.0454 C   0  0  2  0  0  0  0  0  0  0  0  0
   -1.0758    0.5211    2.1153 C   0  0  0  0  0  0  0  0  0  0  0  0
   -0.1081   -0.4380    0.1568 N   0  0  0  0  0  0  0  0  0  0  0  0
    1.1074   -1.1044    0.5420 C   0  0  0  0  0  0  0  0  0  0  0  0
    1.1656   -1.7593    1.6315 O   0  0  0  0  0  0  0  0  0  0  0  0
    2.2815   -1.0178   -0.3412 C   0  0  2  0  0  0  0  0  0  0  0  0
    2.4546   -2.4087   -1.0276 C   0  0  0  0  0  0  0  0  0  0  0  0
    3.5284   -0.8117    0.3631 N   0  0  0  0  0  0  0  0  0  0  0  0
    4.5836   -0.1541   -0.3480 C   0  0  0  0  0  0  0  0  0  0  0  0
    4.4149    0.2041   -1.5552 O   0  0  0  0  0  0  0  0  0  0  0  0
    5.8886    0.1376    0.2559 C   0  0  2  0  0  0  0  0  0  0  0  0
    6.0019    1.6614    0.5317 C   0  0  0  0  0  0  0  0  0  0  0  0
    6.9507   -0.0965   -0.7323 N   0  0  0  0  0  0  0  0  0  0  0  0
    8.1652   -0.7260   -0.3904 C   0  0  0  0  0  0  0  0  0  0  0  0
    8.3093   -1.0770    0.8160 O   0  0  0  0  0  0  0  0  0  0  0  0
    9.2332   -0.9695   -1.3875 C   0  0  2  0  0  0  0  0  0  0  0  0
    8.7070   -1.9611   -2.4160 C   0  0  0  0  0  0  0  0  0  0  0  0
   10.3644   -1.5445   -0.6757 N   0  0  0  0  0  0  0  0  0  0  0  0
   11.6384   -0.9834   -0.7972 C   0  0  0  0  0  0  0  0  0  0  0  0
   11.7711    0.0405   -1.5661 O   0  0  0  0  0  0  0  0  0  0  0  0
   12.7871   -1.5402   -0.0705 C   0  0  2  0  0  0  0  0  0  0  0  0
   12.4806   -1.4169    1.4299 C   0  0  0  0  0  0  0  0  0  0  0  0
   13.9596   -0.7652   -0.4021 N   0  0  0  0  0  0  0  0  0  0  0  0
   14.1286    0.5552    0.0700 C   0  0  0  0  0  0  0  0  0  0  0  0
   13.2229    1.0534    0.7942 O   0  0  0  0  0  0  0  0  0  0  0  0
   15.3117    1.3503   -0.2525 C   0  0  1  0  0  0  0  0  0  0  0  0
   15.5101    1.3442   -1.7609 C   0  0  0  0  0  0  0  0  0  0  0  0
   15.1765    2.7623    0.1643 C   0  0  0  0  0  0  0  0  0  0  0  0
   16.2720    3.7779   -0.0088 C   0  0  0  0  0  0  0  0  0  0  0  0
   14.1418    3.1775    0.6791 O   0  0  0  0  0  0  0  0  0  0  0  0
   -9.5005   -0.0228   -0.0953 C   0  0  0  0  0  0  0  0  0  0  0  0
   -9.1876   -0.4666   -1.3357 O   0  0  0  0  0  0  0  0  0  0  0  0
  -10.5704    0.8352   -0.0027 N   0  0  0  0  0  0  0  0  0  0  0  0
  -10.9118    1.6501    1.1920 C   0  0  0  0  0  0  0  0  0  0  0  0
  -11.1157    3.0299    0.5281 C   0  0  0  0  0  0  0  0  0  0  0  0
  -11.2403    2.7308   -0.9764 C   0  0  0  0  0  0  0  0  0  0  0  0
  -11.6394    1.2167   -0.8658 C   0  0  1  0  0  0  0  0  0  0  0  0
  -11.9385    0.6448   -2.1322 C   0  0  0  0  0  0  0  0  0  0  0  0
  -11.2515   -0.2306   -2.6998 O   0  0  0  0  0  0  0  0  0  0  0  0
  -13.1020    1.0325   -2.9045 N   0  0  0  0  0  0  0  0  0  0  0  0
  -13.3162    0.4116   -4.1831 C   0  0  0  0  0  0  0  0  0  0  0  0
  -14.0321    2.0027   -2.4063 C   0  0  0  0  0  0  0  0  0  0  0  0
   -8.9694   -1.0960    4.6779 H   0  0  0  0  0  0  0  0  0  0  0  0
  -10.6653   -1.8001    4.7105 H   0  0  0  0  0  0  0  0  0  0  0  0
  -10.4330    0.0187    4.5282 H   0  0  0  0  0  0  0  0  0  0  0  0
  -10.8619   -0.8526    2.2899 H   0  0  0  0  0  0  0  0  0  0  0  0
  -10.0100   -2.9019    1.5309 H   0  0  0  0  0  0  0  0  0  0  0  0
   -9.0542   -3.1100    3.1145 H   0  0  0  0  0  0  0  0  0  0  0  0
  -10.8376   -3.0241    3.1227 H   0  0  0  0  0  0  0  0  0  0  0  0
   -7.8939   -1.3057    2.7395 H   0  0  0  0  0  0  0  0  0  0  0  0
   -8.5109    0.4051    2.7975 H   0  0  0  0  0  0  0  0  0  0  0  0
   -8.4935   -1.7628    0.5942 H   0  0  0  0  0  0  0  0  0  0  0  0
   -7.1222    0.7450   -0.0309 H   0  0  0  0  0  0  0  0  0  0  0  0
   -4.7822    0.4646   -0.4409 H   0  0  0  0  0  0  0  0  0  0  0  0
   -5.6124   -1.5613   -2.1081 H   0  0  0  0  0  0  0  0  0  0  0  0
   -4.3008   -0.4149   -2.3567 H   0  0  0  0  0  0  0  0  0  0  0  0
   -3.9317   -2.0375   -1.6725 H   0  0  0  0  0  0  0  0  0  0  0  0
   -3.6288   -1.8361    1.0719 H   0  0  0  0  0  0  0  0  0  0  0  0
   -1.2601   -1.5276    1.5786 H   0  0  0  0  0  0  0  0  0  0  0  0
   -0.7527   -0.0222    3.0449 H   0  0  0  0  0  0  0  0  0  0  0  0
   -0.2914    1.2274    1.8029 H   0  0  0  0  0  0  0  0  0  0  0  0
   -2.0492    1.0099    2.2516 H   0  0  0  0  0  0  0  0  0  0  0  0
   -0.1216    0.1008   -0.7222 H   0  0  0  0  0  0  0  0  0  0  0  0
    2.1643   -0.3160   -1.1547 H   0  0  0  0  0  0  0  0  0  0  0  0
    1.5321   -2.6597   -1.5772 H   0  0  0  0  0  0  0  0  0  0  0  0
    2.6885   -3.1304   -0.2436 H   0  0  0  0  0  0  0  0  0  0  0  0
    3.3222   -2.3123   -1.6983 H   0  0  0  0  0  0  0  0  0  0  0  0
    3.6702   -1.1211    1.3439 H   0  0  0  0  0  0  0  0  0  0  0  0
    6.1287   -0.3717    1.1755 H   0  0  0  0  0  0  0  0  0  0  0  0
    6.0707    2.1045   -0.5052 H   0  0  0  0  0  0  0  0  0  0  0  0
    6.9202    1.8149    1.0888 H   0  0  0  0  0  0  0  0  0  0  0  0
    5.1208    2.0254    1.0911 H   0  0  0  0  0  0  0  0  0  0  0  0
    6.7511    0.2280   -1.7010 H   0  0  0  0  0  0  0  0  0  0  0  0
    9.5026   -0.0610   -1.9239 H   0  0  0  0  0  0  0  0  0  0  0  0
    7.6129   -2.0313   -2.3149 H   0  0  0  0  0  0  0  0  0  0  0  0
    9.0091   -1.7126   -3.4467 H   0  0  0  0  0  0  0  0  0  0  0  0
    9.1087   -2.9860   -2.1830 H   0  0  0  0  0  0  0  0  0  0  0  0
   10.1630   -2.3900   -0.0811 H   0  0  0  0  0  0  0  0  0  0  0  0
   12.9576   -2.6222   -0.2895 H   0  0  0  0  0  0  0  0  0  0  0  0
   11.6773   -0.6726    1.5588 H   0  0  0  0  0  0  0  0  0  0  0  0
   13.3815   -1.0899    1.9700 H   0  0  0  0  0  0  0  0  0  0  0  0
   12.1426   -2.4166    1.7893 H   0  0  0  0  0  0  0  0  0  0  0  0
   14.6770   -1.2035   -0.9928 H   0  0  0  0  0  0  0  0  0  0  0  0
   16.2149    0.9412    0.2401 H   0  0  0  0  0  0  0  0  0  0  0  0
   16.5592    1.7408   -1.9271 H   0  0  0  0  0  0  0  0  0  0  0  0
   15.4498    0.2989   -2.1191 H   0  0  0  0  0  0  0  0  0  0  0  0
   14.7415    1.9787   -2.2089 H   0  0  0  0  0  0  0  0  0  0  0  0
   15.8246    4.8081   -0.0878 H   0  0  0  0  0  0  0  0  0  0  0  0
   16.9539    3.7213    0.8834 H   0  0  0  0  0  0  0  0  0  0  0  0
   16.8486    3.4997   -0.9034 H   0  0  0  0  0  0  0  0  0  0  0  0
  -11.8779    1.3245    1.5826 H   0  0  0  0  0  0  0  0  0  0  0  0
  -10.0874    1.7234    1.9078 H   0  0  0  0  0  0  0  0  0  0  0  0
  -12.0364    3.4999    0.9306 H   0  0  0  0  0  0  0  0  0  0  0  0
  -10.2399    3.6734    0.7432 H   0  0  0  0  0  0  0  0  0  0  0  0
  -10.2487    2.8055   -1.4080 H   0  0  0  0  0  0  0  0  0  0  0  0
  -12.0374    3.3409   -1.3444 H   0  0  0  0  0  0  0  0  0  0  0  0
  -12.6090    1.2706   -0.2060 H   0  0  0  0  0  0  0  0  0  0  0  0
  -14.4231    0.2358   -4.3215 H   0  0  0  0  0  0  0  0  0  0  0  0
  -12.8841    0.9777   -5.0414 H   0  0  0  0  0  0  0  0  0  0  0  0
  -12.8521   -0.6139   -4.2610 H   0  0  0  0  0  0  0  0  0  0  0  0
  -14.0804    2.0225   -1.3021 H   0  0  0  0  0  0  0  0  0  0  0  0
  -15.0836    1.7889   -2.7393 H   0  0  0  0  0  0  0  0  0  0  0  0
  -13.8430    3.0275   -2.8499 H   0  0  0  0  0  0  0  0  0  0  0  0
  1  2  1  0
  2  3  1  0
  2  4  1  0
  4  5  1  0
  5  6  1  0
  6  7  1  0
  7  8  2  0
  7  9  1  0
  9 10  1  0
  9 11  1  0
 11 12  1  0
 12 13  2  0
 12 14  1  0
 14 15  1  0
 14 16  1  0
 16 17  1  0
 17 18  2  0
 17 19  1  0
 19 20  1  0
 19 21  1  0
 21 22  1  0
 22 23  2  0
 22 24  1  0
 24 25  1  0
 24 26  1  0
 26 27  1  0
 27 28  2  0
 27 29  1  0
 29 30  1  0
 29 31  1  0
 31 32  1  0
 32 33  2  0
 32 34  1  0
 34 35  1  0
 34 36  1  0
 36 37  1  0
 37 38  2  0
 37 39  1  0
 39 40  1  0
 39 41  1  0
 41 42  1  0
 41 43  2  0
  5 44  1  0
 44 45  2  0
 44 46  1  0
 46 47  1  0
 47 48  1  0
 48 49  1  0
 49 50  1  0
 50 51  1  0
 51 52  2  0
 51 53  1  0
 53 54  1  0
 53 55  1  0
 50 46  1  0
  1 56  1  0
  1 57  1  0
  1 58  1  0
  2 59  1  0
  3 60  1  0
  3 61  1  0
  3 62  1  0
  4 63  1  0
  4 64  1  0
  5 65  1  6
  6 66  1  0
  9 67  1  6
 10 68  1  0
 10 69  1  0
 10 70  1  0
 11 71  1  0
 14 72  1  1
 15 73  1  0
 15 74  1  0
 15 75  1  0
 16 76  1  0
 19 77  1  6
 20 78  1  0
 20 79  1  0
 20 80  1  0
 21 81  1  0
 24 82  1  1
 25 83  1  0
 25 84  1  0
 25 85  1  0
 26 86  1  0
 29 87  1  6
 30 88  1  0
 30 89  1  0
 30 90  1  0
 31 91  1  0
 34 92  1  6
 35 93  1  0
 35 94  1  0
 35 95  1  0
 36 96  1  0
 39 97  1  1
 40 98  1  0
 40 99  1  0
 40100  1  0
 42101  1  0
 42102  1  0
 42103  1  0
 47104  1  0
 47105  1  0
 48106  1  0
 48107  1  0
 49108  1  0
 49109  1  0
 50110  1  1
 54111  1  0
 54112  1  0
 54113  1  0
 55114  1  0
 55115  1  0
 55116  1  0
M  END
$$$$
[H]N(C(=O)[C@]([H])(C(=O)C([H])([H])[H])C([H])([H])[H])[C@]([H])(C(=O)N([H])[C@]([H])(C(=O)N([H])[C@]([H])(C(=O)N([H])[C@]([H])(C(=O)N([H])[C@]([H])(C(=O)N([H])[C@]([H])(C(=O)N([H])[C@]([H])(C(=O)N1C([H])([H])C([H])([H])C([H])([H])[C@]1([H])C(=O)N1C(=O)C([H])([H])C([H])([H])C1([H])[H])C([H])([H])C([H])(C([H])([H])[H])C([H])([H])[H])C([H])([H])[H])C([H])([H])[H])C([H])([H])[H])C([H])([H])[H])C([H])([H])[H])C([H])([H])[H]
     RDKit          3D

119120  0  0  0  0  0  0  0  0999 V2000
   -9.3656   -1.6988    1.9667 C   0  0  0  0  0  0  0  0  0  0  0  0
   -8.7242   -0.5940    2.8121 C   0  0  0  0  0  0  0  0  0  0  0  0
   -9.7558    0.2221    3.4841 C   0  0  0  0  0  0  0  0  0  0  0  0
   -7.5807    0.0318    2.1798 C   0  0  0  0  0  0  0  0  0  0  0  0
   -7.7082    0.7219    0.8257 C   0  0  2  0  0  0  0  0  0  0  0  0
   -6.2923    1.1804    0.5552 N   0  0  0  0  0  0  0  0  0  0  0  0
   -5.4002    0.2949   -0.0671 C   0  0  0  0  0  0  0  0  0  0  0  0
   -5.8259   -0.8792   -0.3421 O   0  0  0  0  0  0  0  0  0  0  0  0
   -4.0132    0.5713   -0.4433 C   0  0  2  0  0  0  0  0  0  0  0  0
   -3.9271    0.7576   -1.9779 C   0  0  0  0  0  0  0  0  0  0  0  0
   -3.1080   -0.5205   -0.0973 N   0  0  0  0  0  0  0  0  0  0  0  0
   -1.7159   -0.3355    0.0055 C   0  0  0  0  0  0  0  0  0  0  0  0
   -1.1471    0.7860   -0.2330 O   0  0  0  0  0  0  0  0  0  0  0  0
   -0.8270   -1.4288    0.3990 C   0  0  2  0  0  0  0  0  0  0  0  0
   -0.2779   -1.0995    1.8444 C   0  0  0  0  0  0  0  0  0  0  0  0
    0.3476   -1.4216   -0.4614 N   0  0  0  0  0  0  0  0  0  0  0  0
    1.2679   -2.4860   -0.4925 C   0  0  0  0  0  0  0  0  0  0  0  0
    1.1703   -3.5125    0.2360 O   0  0  0  0  0  0  0  0  0  0  0  0
    2.4230   -2.4462   -1.4095 C   0  0  2  0  0  0  0  0  0  0  0  0
    2.1501   -3.4213   -2.5921 C   0  0  0  0  0  0  0  0  0  0  0  0
    3.5994   -2.9008   -0.7103 N   0  0  0  0  0  0  0  0  0  0  0  0
    4.8544   -2.2854   -1.0358 C   0  0  0  0  0  0  0  0  0  0  0  0
    4.8079   -1.3799   -1.9338 O   0  0  0  0  0  0  0  0  0  0  0  0
    6.1288   -2.6412   -0.4007 C   0  0  2  0  0  0  0  0  0  0  0  0
    6.0288   -2.4648    1.1189 C   0  0  0  0  0  0  0  0  0  0  0  0
    7.2169   -1.8193   -0.9403 N   0  0  0  0  0  0  0  0  0  0  0  0
    8.5451   -2.2343   -1.1040 C   0  0  0  0  0  0  0  0  0  0  0  0
    8.9264   -3.3902   -0.7699 O   0  0  0  0  0  0  0  0  0  0  0  0
    9.5118   -1.2782   -1.6840 C   0  0  2  0  0  0  0  0  0  0  0  0
    9.7587   -1.6707   -3.1416 C   0  0  0  0  0  0  0  0  0  0  0  0
   10.7804   -1.3975   -0.9420 N   0  0  0  0  0  0  0  0  0  0  0  0
   11.4262   -0.2454   -0.4458 C   0  0  0  0  0  0  0  0  0  0  0  0
   10.8673    0.8818   -0.6746 O   0  0  0  0  0  0  0  0  0  0  0  0
   12.6966   -0.3669    0.3046 C   0  0  2  0  0  0  0  0  0  0  0  0
   12.5244   -1.1899    1.5762 C   0  0  0  0  0  0  0  0  0  0  0  0
   13.1050    0.9875    0.6320 N   0  0  0  0  0  0  0  0  0  0  0  0
   14.3172    1.4722    0.1061 C   0  0  0  0  0  0  0  0  0  0  0  0
   15.0609    0.7582   -0.6385 O   0  0  0  0  0  0  0  0  0  0  0  0
   14.7967    2.8467    0.3912 C   0  0  1  0  0  0  0  0  0  0  0  0
   13.8649    3.9081   -0.1695 C   0  0  0  0  0  0  0  0  0  0  0  0
   14.9206    2.9830    1.8752 C   0  0  0  0  0  0  0  0  0  0  0  0
   15.8495    2.0960    2.5906 C   0  0  0  0  0  0  0  0  0  0  0  0
   14.2563    3.8136    2.4330 O   0  0  0  0  0  0  0  0  0  0  0  0
   -8.4982    1.9384    0.8960 C   0  0  0  0  0  0  0  0  0  0  0  0
   -8.1005    2.8300    1.7657 O   0  0  0  0  0  0  0  0  0  0  0  0
   -9.6312    2.2955    0.1352 N   0  0  0  0  0  0  0  0  0  0  0  0
  -10.4426    3.5076    0.3442 C   0  0  0  0  0  0  0  0  0  0  0  0
  -10.2889    4.1793   -1.0263 C   0  0  0  0  0  0  0  0  0  0  0  0
   -9.7743    3.0759   -1.9545 C   0  0  0  0  0  0  0  0  0  0  0  0
  -10.0687    1.7626   -1.1013 C   0  0  2  0  0  0  0  0  0  0  0  0
  -11.3877    1.3373   -1.3887 C   0  0  0  0  0  0  0  0  0  0  0  0
  -11.6750    1.4347   -2.6911 O   0  0  0  0  0  0  0  0  0  0  0  0
  -12.4648    0.8412   -0.6515 N   0  0  0  0  0  0  0  0  0  0  0  0
  -12.5388    0.5577    0.7734 C   0  0  0  0  0  0  0  0  0  0  0  0
  -13.5722   -0.5109    0.9276 C   0  0  0  0  0  0  0  0  0  0  0  0
  -14.2941   -0.6300   -0.3748 C   0  0  0  0  0  0  0  0  0  0  0  0
  -13.7812    0.5029   -1.1751 C   0  0  0  0  0  0  0  0  0  0  0  0
  -14.3409    1.0725   -2.1123 O   0  0  0  0  0  0  0  0  0  0  0  0
   -9.6536   -1.2337    1.0143 H   0  0  0  0  0  0  0  0  0  0  0  0
   -8.6028   -2.4901    1.8168 H   0  0  0  0  0  0  0  0  0  0  0  0
  -10.2561   -2.0652    2.4991 H   0  0  0  0  0  0  0  0  0  0  0  0
   -8.2964   -1.2544    3.6957 H   0  0  0  0  0  0  0  0  0  0  0  0
   -9.4577    0.4383    4.5553 H   0  0  0  0  0  0  0  0  0  0  0  0
  -10.6828   -0.4242    3.6069 H   0  0  0  0  0  0  0  0  0  0  0  0
  -10.0128    1.1861    3.0440 H   0  0  0  0  0  0  0  0  0  0  0  0
   -7.1790    0.8271    2.8910 H   0  0  0  0  0  0  0  0  0  0  0  0
   -6.7314   -0.7039    2.1556 H   0  0  0  0  0  0  0  0  0  0  0  0
   -7.9769    0.0375    0.0547 H   0  0  0  0  0  0  0  0  0  0  0  0
   -5.9983    2.1228    0.8270 H   0  0  0  0  0  0  0  0  0  0  0  0
   -3.5964    1.4971   -0.0424 H   0  0  0  0  0  0  0  0  0  0  0  0
   -4.8735    1.1744   -2.3744 H   0  0  0  0  0  0  0  0  0  0  0  0
   -3.1367    1.4997   -2.1692 H   0  0  0  0  0  0  0  0  0  0  0  0
   -3.6273   -0.1992   -2.4761 H   0  0  0  0  0  0  0  0  0  0  0  0
   -3.5173   -1.4510    0.0748 H   0  0  0  0  0  0  0  0  0  0  0  0
   -1.2257   -2.4199    0.5376 H   0  0  0  0  0  0  0  0  0  0  0  0
    0.1742   -2.0038    2.2434 H   0  0  0  0  0  0  0  0  0  0  0  0
    0.4357   -0.2893    1.7490 H   0  0  0  0  0  0  0  0  0  0  0  0
   -1.1845   -0.8464    2.4366 H   0  0  0  0  0  0  0  0  0  0  0  0
    0.5139   -0.5999   -1.0836 H   0  0  0  0  0  0  0  0  0  0  0  0
    2.5890   -1.4444   -1.8131 H   0  0  0  0  0  0  0  0  0  0  0  0
    1.6269   -2.8954   -3.4034 H   0  0  0  0  0  0  0  0  0  0  0  0
    1.4728   -4.1860   -2.1763 H   0  0  0  0  0  0  0  0  0  0  0  0
    3.1241   -3.7937   -2.9067 H   0  0  0  0  0  0  0  0  0  0  0  0
    3.5566   -3.6351   -0.0077 H   0  0  0  0  0  0  0  0  0  0  0  0
    6.3831   -3.6962   -0.5486 H   0  0  0  0  0  0  0  0  0  0  0  0
    6.6683   -3.2156    1.6042 H   0  0  0  0  0  0  0  0  0  0  0  0
    4.9956   -2.6541    1.4594 H   0  0  0  0  0  0  0  0  0  0  0  0
    6.2938   -1.4324    1.4111 H   0  0  0  0  0  0  0  0  0  0  0  0
    6.9746   -0.8171   -1.2306 H   0  0  0  0  0  0  0  0  0  0  0  0
    9.1856   -0.2407   -1.6960 H   0  0  0  0  0  0  0  0  0  0  0  0
    9.6310   -2.7814   -3.2645 H   0  0  0  0  0  0  0  0  0  0  0  0
   10.7763   -1.4117   -3.4829 H   0  0  0  0  0  0  0  0  0  0  0  0
    9.0468   -1.1824   -3.8234 H   0  0  0  0  0  0  0  0  0  0  0  0
   11.2226   -2.3256   -0.7703 H   0  0  0  0  0  0  0  0  0  0  0  0
   13.4630   -0.8672   -0.3186 H   0  0  0  0  0  0  0  0  0  0  0  0
   13.2687   -0.8137    2.3056 H   0  0  0  0  0  0  0  0  0  0  0  0
   12.7742   -2.2353    1.3252 H   0  0  0  0  0  0  0  0  0  0  0  0
   11.4826   -1.1350    1.9574 H   0  0  0  0  0  0  0  0  0  0  0  0
   12.5005    1.5542    1.2409 H   0  0  0  0  0  0  0  0  0  0  0  0
   15.7869    3.0355   -0.0765 H   0  0  0  0  0  0  0  0  0  0  0  0
   14.4024    4.6728   -0.7721 H   0  0  0  0  0  0  0  0  0  0  0  0
   13.2852    4.3817    0.6479 H   0  0  0  0  0  0  0  0  0  0  0  0
   13.1136    3.4235   -0.8420 H   0  0  0  0  0  0  0  0  0  0  0  0
   16.6738    1.8111    1.8923 H   0  0  0  0  0  0  0  0  0  0  0  0
   15.3584    1.1478    2.9498 H   0  0  0  0  0  0  0  0  0  0  0  0
   16.3127    2.5748    3.4791 H   0  0  0  0  0  0  0  0  0  0  0  0
  -11.4584    3.3486    0.6333 H   0  0  0  0  0  0  0  0  0  0  0  0
   -9.9085    4.1092    1.1043 H   0  0  0  0  0  0  0  0  0  0  0  0
   -9.5410    4.9939   -0.9432 H   0  0  0  0  0  0  0  0  0  0  0  0
  -11.2634    4.5688   -1.3408 H   0  0  0  0  0  0  0  0  0  0  0  0
  -10.3223    3.0561   -2.8749 H   0  0  0  0  0  0  0  0  0  0  0  0
   -8.7039    3.1578   -2.0931 H   0  0  0  0  0  0  0  0  0  0  0  0
   -9.3102    1.0289   -1.5392 H   0  0  0  0  0  0  0  0  0  0  0  0
  -11.5908    0.1527    1.1411 H   0  0  0  0  0  0  0  0  0  0  0  0
  -12.8256    1.4469    1.3698 H   0  0  0  0  0  0  0  0  0  0  0  0
  -14.2869   -0.2738    1.7444 H   0  0  0  0  0  0  0  0  0  0  0  0
  -13.1274   -1.4960    1.1912 H   0  0  0  0  0  0  0  0  0  0  0  0
  -14.0213   -1.5654   -0.9163 H   0  0  0  0  0  0  0  0  0  0  0  0
  -15.3985   -0.5677   -0.2710 H   0  0  0  0  0  0  0  0  0  0  0  0
  1  2  1  0
  2  3  1  0
  2  4  1  0
  4  5  1  0
  5  6  1  0
  6  7  1  0
  7  8  2  0
  7  9  1  0
  9 10  1  0
  9 11  1  0
 11 12  1  0
 12 13  2  0
 12 14  1  0
 14 15  1  0
 14 16  1  0
 16 17  1  0
 17 18  2  0
 17 19  1  0
 19 20  1  0
 19 21  1  0
 21 22  1  0
 22 23  2  0
 22 24  1  0
 24 25  1  0
 24 26  1  0
 26 27  1  0
 27 28  2  0
 27 29  1  0
 29 30  1  0
 29 31  1  0
 31 32  1  0
 32 33  2  0
 32 34  1  0
 34 35  1  0
 34 36  1  0
 36 37  1  0
 37 38  2  0
 37 39  1  0
 39 40  1  0
 39 41  1  0
 41 42  1  0
 41 43  2  0
  5 44  1  0
 44 45  2  0
 44 46  1  0
 46 47  1  0
 47 48  1  0
 48 49  1  0
 49 50  1  0
 50 51  1  0
 51 52  2  0
 51 53  1  0
 53 54  1  0
 54 55  1  0
 55 56  1  0
 56 57  1  0
 57 58  2  0
 50 46  1  0
 57 53  1  0
  1 59  1  0
  1 60  1  0
  1 61  1  0
  2 62  1  0
  3 63  1  0
  3 64  1  0
  3 65  1  0
  4 66  1  0
  4 67  1  0
  5 68  1  6
  6 69  1  0
  9 70  1  1
 10 71  1  0
 10 72  1  0
 10 73  1  0
 11 74  1  0
 14 75  1  1
 15 76  1  0
 15 77  1  0
 15 78  1  0
 16 79  1  0
 19 80  1  6
 20 81  1  0
 20 82  1  0
 20 83  1  0
 21 84  1  0
 24 85  1  1
 25 86  1  0
 25 87  1  0
 25 88  1  0
 26 89  1  0
 29 90  1  6
 30 91  1  0
 30 92  1  0
 30 93  1  0
 31 94  1  0
 34 95  1  6
 35 96  1  0
 35 97  1  0
 35 98  1  0
 36 99  1  0
 39100  1  6
 40101  1  0
 40102  1  0
 40103  1  0
 42104  1  0
 42105  1  0
 42106  1  0
 47107  1  0
 47108  1  0
 48109  1  0
 48110  1  0
 49111  1  0
 49112  1  0
 50113  1  6
 54114  1  0
 54115  1  0
 55116  1  0
 55117  1  0
 56118  1  0
 56119  1  0
M  END
$$$$
[H]N(C(=O)[C@@]([H])(N([H])C(=O)[C@@]([H])(N([H])C(=O)[C@@]([H])(C(=O)C([H])([H])[H])C([H])([H])[H])C([H])([H])[H])C([H])([H])[H])[C@]([H])(C(=O)N([H])[C@]([H])(C(=O)N([H])[C@]([H])(C(=O)N([H])[C@]([H])(C(=O)N([H])[C@]([H])(C(=O)N1C([H])([H])C([H])([H])C([H])([H])[C@@]1([H])C(=O)N(C([H])([H])[H])C([H])([H])[H])C([H])([H])C([H])(C([H])([H])[H])C([H])([H])[H])C([H])([H])[H])C([H])([H])[H])C([H])([H])[H])C([H])([H])[H]
     RDKit          3D

116116  0  0  0  0  0  0  0  0999 V2000
   -8.6886   -3.5040    1.7956 C   0  0  0  0  0  0  0  0  0  0  0  0
   -8.3988   -2.5436    0.6502 C   0  0  0  0  0  0  0  0  0  0  0  0
   -7.9617   -3.4097   -0.5277 C   0  0  0  0  0  0  0  0  0  0  0  0
   -7.2806   -1.5909    1.0093 C   0  0  0  0  0  0  0  0  0  0  0  0
   -6.9358   -0.6029   -0.0409 C   0  0  2  0  0  0  0  0  0  0  0  0
   -5.8537    0.2484    0.2958 N   0  0  0  0  0  0  0  0  0  0  0  0
   -4.5412    0.3358   -0.2715 C   0  0  0  0  0  0  0  0  0  0  0  0
   -4.1910   -0.3571   -1.1937 O   0  0  0  0  0  0  0  0  0  0  0  0
   -3.6337    1.3433    0.4104 C   0  0  2  0  0  0  0  0  0  0  0  0
   -3.3224    2.4761   -0.4993 C   0  0  0  0  0  0  0  0  0  0  0  0
   -2.3836    0.7246    0.8445 N   0  0  0  0  0  0  0  0  0  0  0  0
   -2.3283   -0.6507    1.1763 C   0  0  0  0  0  0  0  0  0  0  0  0
   -3.3474   -1.3445    1.0311 O   0  0  0  0  0  0  0  0  0  0  0  0
   -1.1128   -1.2979    1.6662 C   0  0  2  0  0  0  0  0  0  0  0  0
   -0.8352   -1.0069    3.0907 C   0  0  0  0  0  0  0  0  0  0  0  0
    0.0186   -1.2693    0.8290 N   0  0  0  0  0  0  0  0  0  0  0  0
    0.1099   -0.9273   -0.5326 C   0  0  0  0  0  0  0  0  0  0  0  0
   -0.8438   -0.5466   -1.2391 O   0  0  0  0  0  0  0  0  0  0  0  0
    1.4496   -1.0362   -1.1128 C   0  0  2  0  0  0  0  0  0  0  0  0
    2.0746   -2.3352   -0.5610 C   0  0  0  0  0  0  0  0  0  0  0  0
    2.3361    0.0294   -0.5176 N   0  0  0  0  0  0  0  0  0  0  0  0
    3.5144    0.2650   -1.1458 C   0  0  0  0  0  0  0  0  0  0  0  0
    3.7722   -0.3959   -2.2862 O   0  0  0  0  0  0  0  0  0  0  0  0
    4.6806    1.1575   -0.7539 C   0  0  2  0  0  0  0  0  0  0  0  0
    4.7890    2.3362   -1.6404 C   0  0  0  0  0  0  0  0  0  0  0  0
    5.7763    0.2194   -1.1025 N   0  0  0  0  0  0  0  0  0  0  0  0
    6.6176   -0.4537   -0.2211 C   0  0  0  0  0  0  0  0  0  0  0  0
    6.6627   -0.3386    0.9990 O   0  0  0  0  0  0  0  0  0  0  0  0
    7.5384   -1.4523   -0.9148 C   0  0  2  0  0  0  0  0  0  0  0  0
    6.6603   -2.7091   -1.1716 C   0  0  0  0  0  0  0  0  0  0  0  0
    8.6644   -1.8118   -0.1809 N   0  0  0  0  0  0  0  0  0  0  0  0
    9.8995   -1.2022   -0.4454 C   0  0  0  0  0  0  0  0  0  0  0  0
    9.9702   -0.2985   -1.3542 O   0  0  0  0  0  0  0  0  0  0  0  0
   11.1511   -1.5696    0.2944 C   0  0  2  0  0  0  0  0  0  0  0  0
   10.9204   -1.7268    1.7375 C   0  0  0  0  0  0  0  0  0  0  0  0
   12.1574   -0.6766   -0.1935 N   0  0  0  0  0  0  0  0  0  0  0  0
   12.5828    0.4927    0.4362 C   0  0  0  0  0  0  0  0  0  0  0  0
   12.1724    0.9119    1.5125 O   0  0  0  0  0  0  0  0  0  0  0  0
   13.6275    1.3063   -0.2816 C   0  0  2  0  0  0  0  0  0  0  0  0
   14.8602    0.4351   -0.3393 C   0  0  0  0  0  0  0  0  0  0  0  0
   13.8238    2.6115    0.3550 C   0  0  0  0  0  0  0  0  0  0  0  0
   14.6620    3.6442   -0.3556 C   0  0  0  0  0  0  0  0  0  0  0  0
   13.3363    2.8835    1.4230 O   0  0  0  0  0  0  0  0  0  0  0  0
   -8.0809    0.0545   -0.7331 C   0  0  0  0  0  0  0  0  0  0  0  0
   -8.1576   -0.1171   -2.0147 O   0  0  0  0  0  0  0  0  0  0  0  0
   -9.0159    0.8243   -0.0494 N   0  0  0  0  0  0  0  0  0  0  0  0
   -8.8000    1.2930    1.3550 C   0  0  0  0  0  0  0  0  0  0  0  0
   -8.6685    2.7968    0.9029 C   0  0  0  0  0  0  0  0  0  0  0  0
   -9.7170    2.9163   -0.2499 C   0  0  0  0  0  0  0  0  0  0  0  0
  -10.2639    1.4734   -0.2608 C   0  0  1  0  0  0  0  0  0  0  0  0
  -11.2217    1.1059   -1.2297 C   0  0  0  0  0  0  0  0  0  0  0  0
  -10.8757    0.1309   -2.0282 O   0  0  0  0  0  0  0  0  0  0  0  0
  -12.4986    1.6031   -1.4714 N   0  0  0  0  0  0  0  0  0  0  0  0
  -13.3704    0.9507   -2.4556 C   0  0  0  0  0  0  0  0  0  0  0  0
  -13.0669    2.7643   -0.8470 C   0  0  0  0  0  0  0  0  0  0  0  0
   -7.7520   -3.9048    2.1766 H   0  0  0  0  0  0  0  0  0  0  0  0
   -9.2426   -4.3603    1.3496 H   0  0  0  0  0  0  0  0  0  0  0  0
   -9.3439   -3.0631    2.5376 H   0  0  0  0  0  0  0  0  0  0  0  0
   -9.3024   -1.9933    0.4207 H   0  0  0  0  0  0  0  0  0  0  0  0
   -8.1214   -2.8840   -1.5016 H   0  0  0  0  0  0  0  0  0  0  0  0
   -6.9138   -3.6864   -0.4684 H   0  0  0  0  0  0  0  0  0  0  0  0
   -8.6823   -4.2727   -0.5484 H   0  0  0  0  0  0  0  0  0  0  0  0
   -6.3935   -2.2876    1.2142 H   0  0  0  0  0  0  0  0  0  0  0  0
   -7.5489   -1.1493    1.9878 H   0  0  0  0  0  0  0  0  0  0  0  0
   -6.4455   -1.2799   -0.8647 H   0  0  0  0  0  0  0  0  0  0  0  0
   -5.9874    0.9554    1.0879 H   0  0  0  0  0  0  0  0  0  0  0  0
   -4.1649    1.6893    1.3346 H   0  0  0  0  0  0  0  0  0  0  0  0
   -4.2510    2.8089   -1.0619 H   0  0  0  0  0  0  0  0  0  0  0  0
   -2.9375    3.3267    0.0641 H   0  0  0  0  0  0  0  0  0  0  0  0
   -2.5167    2.1930   -1.2403 H   0  0  0  0  0  0  0  0  0  0  0  0
   -1.5169    1.3101    0.8853 H   0  0  0  0  0  0  0  0  0  0  0  0
   -1.4072   -2.4807    1.6610 H   0  0  0  0  0  0  0  0  0  0  0  0
    0.2067   -1.3027    3.3953 H   0  0  0  0  0  0  0  0  0  0  0  0
   -1.0374    0.0479    3.4025 H   0  0  0  0  0  0  0  0  0  0  0  0
   -1.5004   -1.6779    3.7312 H   0  0  0  0  0  0  0  0  0  0  0  0
    0.9786   -1.5131    1.3085 H   0  0  0  0  0  0  0  0  0  0  0  0
    1.5261   -1.0928   -2.1775 H   0  0  0  0  0  0  0  0  0  0  0  0
    1.3088   -3.1006   -0.3802 H   0  0  0  0  0  0  0  0  0  0  0  0
    2.6462   -2.1360    0.3535 H   0  0  0  0  0  0  0  0  0  0  0  0
    2.8263   -2.6878   -1.3069 H   0  0  0  0  0  0  0  0  0  0  0  0
    1.9614    0.5125    0.3158 H   0  0  0  0  0  0  0  0  0  0  0  0
    4.6554    1.3583    0.3041 H   0  0  0  0  0  0  0  0  0  0  0  0
    4.9105    1.9365   -2.6940 H   0  0  0  0  0  0  0  0  0  0  0  0
    5.7297    2.8903   -1.3695 H   0  0  0  0  0  0  0  0  0  0  0  0
    3.9145    3.0079   -1.5834 H   0  0  0  0  0  0  0  0  0  0  0  0
    5.8948    0.1130   -2.1526 H   0  0  0  0  0  0  0  0  0  0  0  0
    7.7881   -1.0114   -1.9176 H   0  0  0  0  0  0  0  0  0  0  0  0
    5.7709   -2.3845   -1.7450 H   0  0  0  0  0  0  0  0  0  0  0  0
    7.2425   -3.3810   -1.8008 H   0  0  0  0  0  0  0  0  0  0  0  0
    6.3673   -3.1386   -0.1782 H   0  0  0  0  0  0  0  0  0  0  0  0
    8.5903   -2.5597    0.5876 H   0  0  0  0  0  0  0  0  0  0  0  0
   11.4183   -2.6076   -0.1465 H   0  0  0  0  0  0  0  0  0  0  0  0
   11.2071   -0.8609    2.3294 H   0  0  0  0  0  0  0  0  0  0  0  0
   11.4212   -2.6643    2.1145 H   0  0  0  0  0  0  0  0  0  0  0  0
    9.8066   -1.8662    1.9095 H   0  0  0  0  0  0  0  0  0  0  0  0
   12.6404   -0.9367   -1.1329 H   0  0  0  0  0  0  0  0  0  0  0  0
   13.2666    1.4725   -1.3504 H   0  0  0  0  0  0  0  0  0  0  0  0
   15.7650    1.0537   -0.3570 H   0  0  0  0  0  0  0  0  0  0  0  0
   14.7686   -0.1891   -1.2571 H   0  0  0  0  0  0  0  0  0  0  0  0
   14.9073   -0.2574    0.5489 H   0  0  0  0  0  0  0  0  0  0  0  0
   14.0327    4.5742   -0.4125 H   0  0  0  0  0  0  0  0  0  0  0  0
   14.8669    3.2902   -1.3891 H   0  0  0  0  0  0  0  0  0  0  0  0
   15.5831    3.7719    0.2130 H   0  0  0  0  0  0  0  0  0  0  0  0
   -9.7370    1.2622    1.9302 H   0  0  0  0  0  0  0  0  0  0  0  0
   -7.9374    0.9715    1.8428 H   0  0  0  0  0  0  0  0  0  0  0  0
   -8.8624    3.4744    1.7135 H   0  0  0  0  0  0  0  0  0  0  0  0
   -7.6422    2.8485    0.4975 H   0  0  0  0  0  0  0  0  0  0  0  0
   -9.1440    3.1063   -1.1648 H   0  0  0  0  0  0  0  0  0  0  0  0
  -10.4103    3.6722    0.0460 H   0  0  0  0  0  0  0  0  0  0  0  0
  -10.8306    1.4430    0.7893 H   0  0  0  0  0  0  0  0  0  0  0  0
  -14.3500    0.8372   -1.9005 H   0  0  0  0  0  0  0  0  0  0  0  0
  -13.4945    1.5274   -3.3597 H   0  0  0  0  0  0  0  0  0  0  0  0
  -13.0488   -0.0639   -2.6718 H   0  0  0  0  0  0  0  0  0  0  0  0
  -14.0529    2.4049   -0.3807 H   0  0  0  0  0  0  0  0  0  0  0  0
  -13.3199    3.5537   -1.6128 H   0  0  0  0  0  0  0  0  0  0  0  0
  -12.5387    3.2213   -0.0353 H   0  0  0  0  0  0  0  0  0  0  0  0
  1  2  1  0
  2  3  1  0
  2  4  1  0
  4  5  1  0
  5  6  1  0
  6  7  1  0
  7  8  2  0
  7  9  1  0
  9 10  1  0
  9 11  1  0
 11 12  1  0
 12 13  2  0
 12 14  1  0
 14 15  1  0
 14 16  1  0
 16 17  1  0
 17 18  2  0
 17 19  1  0
 19 20  1  0
 19 21  1  0
 21 22  1  0
 22 23  2  0
 22 24  1  0
 24 25  1  0
 24 26  1  0
 26 27  1  0
 27 28  2  0
 27 29  1  0
 29 30  1  0
 29 31  1  0
 31 32  1  0
 32 33  2  0
 32 34  1  0
 34 35  1  0
 34 36  1  0
 36 37  1  0
 37 38  2  0
 37 39  1  0
 39 40  1  0
 39 41  1  0
 41 42  1  0
 41 43  2  0
  5 44  1  0
 44 45  2  0
 44 46  1  0
 46 47  1  0
 47 48  1  0
 48 49  1  0
 49 50  1  0
 50 51  1  0
 51 52  2  0
 51 53  1  0
 53 54  1  0
 53 55  1  0
 50 46  1  0
  1 56  1  0
  1 57  1  0
  1 58  1  0
  2 59  1  0
  3 60  1  0
  3 61  1  0
  3 62  1  0
  4 63  1  0
  4 64  1  0
  5 65  1  6
  6 66  1  0
  9 67  1  1
 10 68  1  0
 10 69  1  0
 10 70  1  0
 11 71  1  0
 14 72  1  1
 15 73  1  0
 15 74  1  0
 15 75  1  0
 16 76  1  0
 19 77  1  6
 20 78  1  0
 20 79  1  0
 20 80  1  0
 21 81  1  0
 24 82  1  1
 25 83  1  0
 25 84  1  0
 25 85  1  0
 26 86  1  0
 29 87  1  6
 30 88  1  0
 30 89  1  0
 30 90  1  0
 31 91  1  0
 34 92  1  6
 35 93  1  0
 35 94  1  0
 35 95  1  0
 36 96  1  0
 39 97  1  6
 40 98  1  0
 40 99  1  0
 40100  1  0
 42101  1  0
 42102  1  0
 42103  1  0
 47104  1  0
 47105  1  0
 48106  1  0
 48107  1  0
 49108  1  0
 49109  1  0
 50110  1  1
 54111  1  0
 54112  1  0
 54113  1  0
 55114  1  0
 55115  1  0
 55116  1  0
M  END
$$$$
[H]N(C(=O)[C@]([H])(C(=O)C([H])([H])[H])C([H])([H])[H])[C@]([H])(C(=O)N([H])[C@]([H])(C(=O)N([H])[C@]([H])(C(=O)N([H])[C@]([H])(C(=O)N([H])[C@]([H])(C(=O)N([H])[C@]([H])(C(=O)N([H])[C@]([H])(C(=O)N1C([H])([H])C([H])([H])C([H])([H])[C@@]1([H])C(=O)N1C(=O)C([H])([H])C([H])([H])C1([H])[H])C([H])([H])C([H])(C([H])([H])[H])C([H])([H])[H])C([H])([H])[H])C([H])([H])[H])C([H])([H])[H])C([H])([H])[H])C([H])([H])[H])C([H])([H])[H]
     RDKit          3D

119120  0  0  0  0  0  0  0  0999 V2000
   -9.5412   -2.1686    1.6251 C   0  0  0  0  0  0  0  0  0  0  0  0
   -9.0218   -0.9904    2.4310 C   0  0  0  0  0  0  0  0  0  0  0  0
  -10.1219   -0.1564    2.9549 C   0  0  0  0  0  0  0  0  0  0  0  0
   -7.8773   -0.3312    1.7958 C   0  0  0  0  0  0  0  0  0  0  0  0
   -7.9492    0.2485    0.4328 C   0  0  2  0  0  0  0  0  0  0  0  0
   -6.5541    0.7902    0.1958 N   0  0  0  0  0  0  0  0  0  0  0  0
   -5.6003   -0.0302   -0.4202 C   0  0  0  0  0  0  0  0  0  0  0  0
   -5.9458   -1.2276   -0.7326 O   0  0  0  0  0  0  0  0  0  0  0  0
   -4.2138    0.3203   -0.7599 C   0  0  2  0  0  0  0  0  0  0  0  0
   -4.0792    0.3555   -2.3198 C   0  0  0  0  0  0  0  0  0  0  0  0
   -3.2469   -0.7202   -0.3894 N   0  0  0  0  0  0  0  0  0  0  0  0
   -1.8859   -0.3836   -0.1784 C   0  0  0  0  0  0  0  0  0  0  0  0
   -1.5316    0.8056   -0.3504 O   0  0  0  0  0  0  0  0  0  0  0  0
   -0.9077   -1.3688    0.2291 C   0  0  2  0  0  0  0  0  0  0  0  0
   -0.5020   -1.0972    1.7217 C   0  0  0  0  0  0  0  0  0  0  0  0
    0.3428   -1.1723   -0.4787 N   0  0  0  0  0  0  0  0  0  0  0  0
    1.3459   -2.1614   -0.4596 C   0  0  0  0  0  0  0  0  0  0  0  0
    1.2165   -3.2444    0.1823 O   0  0  0  0  0  0  0  0  0  0  0  0
    2.5945   -1.9586   -1.1982 C   0  0  2  0  0  0  0  0  0  0  0  0
    2.5979   -2.8901   -2.4569 C   0  0  0  0  0  0  0  0  0  0  0  0
    3.7104   -2.4145   -0.3834 N   0  0  0  0  0  0  0  0  0  0  0  0
    4.9782   -1.8141   -0.5869 C   0  0  0  0  0  0  0  0  0  0  0  0
    5.0420   -0.9181   -1.5082 O   0  0  0  0  0  0  0  0  0  0  0  0
    6.1894   -2.1623    0.1878 C   0  0  2  0  0  0  0  0  0  0  0  0
    5.9523   -1.6445    1.6167 C   0  0  0  0  0  0  0  0  0  0  0  0
    7.3735   -1.5258   -0.3647 N   0  0  0  0  0  0  0  0  0  0  0  0
    8.6826   -2.0973   -0.2654 C   0  0  0  0  0  0  0  0  0  0  0  0
    8.8453   -3.1892    0.3416 O   0  0  0  0  0  0  0  0  0  0  0  0
    9.8347   -1.4178   -0.8671 C   0  0  2  0  0  0  0  0  0  0  0  0
   10.1435   -2.2110   -2.1553 C   0  0  0  0  0  0  0  0  0  0  0  0
   11.0092   -1.5069    0.0136 N   0  0  0  0  0  0  0  0  0  0  0  0
   11.9469   -0.4435    0.0382 C   0  0  0  0  0  0  0  0  0  0  0  0
   11.7983    0.5845   -0.6877 O   0  0  0  0  0  0  0  0  0  0  0  0
   13.1241   -0.5099    0.9159 C   0  0  2  0  0  0  0  0  0  0  0  0
   12.6079   -0.5029    2.3626 C   0  0  0  0  0  0  0  0  0  0  0  0
   13.9665    0.6807    0.7308 N   0  0  0  0  0  0  0  0  0  0  0  0
   15.3751    0.6289    0.6453 C   0  0  0  0  0  0  0  0  0  0  0  0
   15.9123   -0.5136    0.7436 O   0  0  0  0  0  0  0  0  0  0  0  0
   16.1587    1.8692    0.4492 C   0  0  1  0  0  0  0  0  0  0  0  0
   15.8511    2.5285   -0.8981 C   0  0  0  0  0  0  0  0  0  0  0  0
   15.7653    2.8872    1.4742 C   0  0  0  0  0  0  0  0  0  0  0  0
   16.3811    4.2462    1.4923 C   0  0  0  0  0  0  0  0  0  0  0  0
   14.9258    2.5679    2.2936 O   0  0  0  0  0  0  0  0  0  0  0  0
   -8.8827    1.3354    0.1790 C   0  0  0  0  0  0  0  0  0  0  0  0
   -8.6631    2.4728    0.7241 O   0  0  0  0  0  0  0  0  0  0  0  0
  -10.0495    1.2344   -0.6746 N   0  0  0  0  0  0  0  0  0  0  0  0
  -10.5867    0.0941   -1.3473 C   0  0  0  0  0  0  0  0  0  0  0  0
  -10.6545    0.5697   -2.8071 C   0  0  0  0  0  0  0  0  0  0  0  0
  -10.9584    2.0281   -2.6730 C   0  0  0  0  0  0  0  0  0  0  0  0
  -10.7937    2.3535   -1.1631 C   0  0  1  0  0  0  0  0  0  0  0  0
  -12.0014    2.8628   -0.6196 C   0  0  0  0  0  0  0  0  0  0  0  0
  -12.3154    4.0367   -1.1653 O   0  0  0  0  0  0  0  0  0  0  0  0
  -12.9573    2.4644    0.3353 N   0  0  0  0  0  0  0  0  0  0  0  0
  -13.0874    1.3076    1.1883 C   0  0  0  0  0  0  0  0  0  0  0  0
  -14.5635    0.9405    0.9337 C   0  0  0  0  0  0  0  0  0  0  0  0
  -15.2458    2.3135    0.9946 C   0  0  0  0  0  0  0  0  0  0  0  0
  -14.1420    3.2469    0.6926 C   0  0  0  0  0  0  0  0  0  0  0  0
  -14.1950    4.5108    0.7303 O   0  0  0  0  0  0  0  0  0  0  0  0
  -10.6555   -2.1584    1.7248 H   0  0  0  0  0  0  0  0  0  0  0  0
   -9.2311   -2.0135    0.5793 H   0  0  0  0  0  0  0  0  0  0  0  0
   -9.1207   -3.1293    2.0054 H   0  0  0  0  0  0  0  0  0  0  0  0
   -8.5665   -1.4849    3.4007 H   0  0  0  0  0  0  0  0  0  0  0  0
  -10.0893   -0.1120    4.0735 H   0  0  0  0  0  0  0  0  0  0  0  0
  -11.1398   -0.5953    2.7432 H   0  0  0  0  0  0  0  0  0  0  0  0
  -10.1235    0.9049    2.6313 H   0  0  0  0  0  0  0  0  0  0  0  0
   -7.5605    0.5103    2.5176 H   0  0  0  0  0  0  0  0  0  0  0  0
   -6.9849   -1.0275    1.8904 H   0  0  0  0  0  0  0  0  0  0  0  0
   -8.0775   -0.5731   -0.2771 H   0  0  0  0  0  0  0  0  0  0  0  0
   -6.3581    1.7527    0.5003 H   0  0  0  0  0  0  0  0  0  0  0  0
   -3.8625    1.3129   -0.4700 H   0  0  0  0  0  0  0  0  0  0  0  0
   -4.9379    0.8752   -2.7618 H   0  0  0  0  0  0  0  0  0  0  0  0
   -3.1315    0.8317   -2.5983 H   0  0  0  0  0  0  0  0  0  0  0  0
   -4.0399   -0.7012   -2.6504 H   0  0  0  0  0  0  0  0  0  0  0  0
   -3.5306   -1.7122   -0.2743 H   0  0  0  0  0  0  0  0  0  0  0  0
   -1.1965   -2.4215    0.2641 H   0  0  0  0  0  0  0  0  0  0  0  0
    0.1618   -1.9445    1.9868 H   0  0  0  0  0  0  0  0  0  0  0  0
    0.0312   -0.1534    1.8065 H   0  0  0  0  0  0  0  0  0  0  0  0
   -1.4265   -1.1791    2.3194 H   0  0  0  0  0  0  0  0  0  0  0  0
    0.4881   -0.2964   -0.9992 H   0  0  0  0  0  0  0  0  0  0  0  0
    2.6844   -0.9494   -1.5799 H   0  0  0  0  0  0  0  0  0  0  0  0
    2.3866   -2.2890   -3.3645 H   0  0  0  0  0  0  0  0  0  0  0  0
    1.7359   -3.5850   -2.3449 H   0  0  0  0  0  0  0  0  0  0  0  0
    3.5655   -3.3767   -2.5670 H   0  0  0  0  0  0  0  0  0  0  0  0
    3.5442   -3.1539    0.3130 H   0  0  0  0  0  0  0  0  0  0  0  0
    6.3142   -3.2335    0.2902 H   0  0  0  0  0  0  0  0  0  0  0  0
    6.3186   -2.3607    2.3680 H   0  0  0  0  0  0  0  0  0  0  0  0
    4.9096   -1.3635    1.7945 H   0  0  0  0  0  0  0  0  0  0  0  0
    6.5821   -0.7196    1.7302 H   0  0  0  0  0  0  0  0  0  0  0  0
    7.2643   -0.6069   -0.8598 H   0  0  0  0  0  0  0  0  0  0  0  0
    9.6342   -0.3931   -1.2069 H   0  0  0  0  0  0  0  0  0  0  0  0
   11.0757   -1.8558   -2.6287 H   0  0  0  0  0  0  0  0  0  0  0  0
   10.1210   -3.2914   -1.9407 H   0  0  0  0  0  0  0  0  0  0  0  0
    9.3121   -1.9934   -2.8545 H   0  0  0  0  0  0  0  0  0  0  0  0
   11.1677   -2.3302    0.6165 H   0  0  0  0  0  0  0  0  0  0  0  0
   13.7589   -1.3839    0.8255 H   0  0  0  0  0  0  0  0  0  0  0  0
   13.3996   -0.8749    3.0407 H   0  0  0  0  0  0  0  0  0  0  0  0
   11.7805   -1.2365    2.3929 H   0  0  0  0  0  0  0  0  0  0  0  0
   12.2097    0.4869    2.6497 H   0  0  0  0  0  0  0  0  0  0  0  0
   13.4004    1.5740    0.6646 H   0  0  0  0  0  0  0  0  0  0  0  0
   17.2494    1.6680    0.4815 H   0  0  0  0  0  0  0  0  0  0  0  0
   16.5702    3.3710   -1.0189 H   0  0  0  0  0  0  0  0  0  0  0  0
   14.8095    2.9048   -0.8399 H   0  0  0  0  0  0  0  0  0  0  0  0
   16.0247    1.8342   -1.7470 H   0  0  0  0  0  0  0  0  0  0  0  0
   16.1238    4.8372    0.5881 H   0  0  0  0  0  0  0  0  0  0  0  0
   17.4829    4.1417    1.5138 H   0  0  0  0  0  0  0  0  0  0  0  0
   16.0154    4.7602    2.4052 H   0  0  0  0  0  0  0  0  0  0  0  0
   -9.9185   -0.7915   -1.3155 H   0  0  0  0  0  0  0  0  0  0  0  0
  -11.5895   -0.2188   -1.0909 H   0  0  0  0  0  0  0  0  0  0  0  0
   -9.6372    0.3870   -3.2312 H   0  0  0  0  0  0  0  0  0  0  0  0
  -11.4481    0.0056   -3.3509 H   0  0  0  0  0  0  0  0  0  0  0  0
  -10.2586    2.6061   -3.2935 H   0  0  0  0  0  0  0  0  0  0  0  0
  -11.9905    2.2789   -3.0000 H   0  0  0  0  0  0  0  0  0  0  0  0
  -10.0577    3.2613   -1.2111 H   0  0  0  0  0  0  0  0  0  0  0  0
  -12.4382    0.4737    1.0033 H   0  0  0  0  0  0  0  0  0  0  0  0
  -13.0855    1.6475    2.2558 H   0  0  0  0  0  0  0  0  0  0  0  0
  -14.5910    0.5083   -0.0781 H   0  0  0  0  0  0  0  0  0  0  0  0
  -14.9527    0.3007    1.7277 H   0  0  0  0  0  0  0  0  0  0  0  0
  -15.9936    2.2975    0.1469 H   0  0  0  0  0  0  0  0  0  0  0  0
  -15.7248    2.4657    1.9598 H   0  0  0  0  0  0  0  0  0  0  0  0
  1  2  1  0
  2  3  1  0
  2  4  1  0
  4  5  1  0
  5  6  1  0
  6  7  1  0
  7  8  2  0
  7  9  1  0
  9 10  1  0
  9 11  1  0
 11 12  1  0
 12 13  2  0
 12 14  1  0
 14 15  1  0
 14 16  1  0
 16 17  1  0
 17 18  2  0
 17 19  1  0
 19 20  1  0
 19 21  1  0
 21 22  1  0
 22 23  2  0
 22 24  1  0
 24 25  1  0
 24 26  1  0
 26 27  1  0
 27 28  2  0
 27 29  1  0
 29 30  1  0
 29 31  1  0
 31 32  1  0
 32 33  2  0
 32 34  1  0
 34 35  1  0
 34 36  1  0
 36 37  1  0
 37 38  2  0
 37 39  1  0
 39 40  1  0
 39 41  1  0
 41 42  1  0
 41 43  2  0
  5 44  1  0
 44 45  2  0
 44 46  1  0
 46 47  1  0
 47 48  1  0
 48 49  1  0
 49 50  1  0
 50 51  1  0
 51 52  2  0
 51 53  1  0
 53 54  1  0
 54 55  1  0
 55 56  1  0
 56 57  1  0
 57 58  2  0
 50 46  1  0
 57 53  1  0
  1 59  1  0
  1 60  1  0
  1 61  1  0
  2 62  1  0
  3 63  1  0
  3 64  1  0
  3 65  1  0
  4 66  1  0
  4 67  1  0
  5 68  1  6
  6 69  1  0
  9 70  1  1
 10 71  1  0
 10 72  1  0
 10 73  1  0
 11 74  1  0
 14 75  1  1
 15 76  1  0
 15 77  1  0
 15 78  1  0
 16 79  1  0
 19 80  1  6
 20 81  1  0
 20 82  1  0
 20 83  1  0
 21 84  1  0
 24 85  1  1
 25 86  1  0
 25 87  1  0
 25 88  1  0
 26 89  1  0
 29 90  1  6
 30 91  1  0
 30 92  1  0
 30 93  1  0
 31 94  1  0
 34 95  1  6
 35 96  1  0
 35 97  1  0
 35 98  1  0
 36 99  1  0
 39100  1  6
 40101  1  0
 40102  1  0
 40103  1  0
 42104  1  0
 42105  1  0
 42106  1  0
 47107  1  0
 47108  1  0
 48109  1  0
 48110  1  0
 49111  1  0
 49112  1  0
 50113  1  6
 54114  1  0
 54115  1  0
 55116  1  0
 55117  1  0
 56118  1  0
 56119  1  0
M  END
$$$$
[H]N(C(=O)[C@@]([H])(N([H])C(=O)[C@@]([H])(N([H])C(=O)[C@@]([H])(N([H])C(=O)[C@@]([H])(C(=O)C([H])([H])[H])C([H])([H])[H])C([H])([H])[H])C([H])([H])[H])C([H])([H])[H])[C@]([H])(C(=O)N([H])[C@]([H])(C(=O)N([H])[C@]([H])(C(=O)N([H])[C@]([H])(C(=O)N([H])[C@]([H])(C(=O)N1C([H])([H])C([H])([H])C([H])([H])[C@]1([H])C(=O)N1C(=O)C([H])([H])C([H])([H])C1([H])[H])C([H])([H])C([H])(C([H])([H])[H])C([H])([H])[H])C([H])([H])[H])C([H])([H])[H])C([H])([H])[H])C([H])([H])[H]
     RDKit          3D

129130  0  0  0  0  0  0  0  0999 V2000
    9.9729   -3.0160   -1.8585 C   0  0  0  0  0  0  0  0  0  0  0  0
    8.6649   -2.8308   -1.2737 C   0  0  0  0  0  0  0  0  0  0  0  0
    7.6701   -3.6112   -2.2171 C   0  0  0  0  0  0  0  0  0  0  0  0
    8.0415   -1.5731   -0.8992 C   0  0  0  0  0  0  0  0  0  0  0  0
    8.4883   -0.5998    0.0560 C   0  0  2  0  0  0  0  0  0  0  0  0
    7.3099    0.3819    0.1242 N   0  0  0  0  0  0  0  0  0  0  0  0
    6.3289    0.3020    1.0915 C   0  0  0  0  0  0  0  0  0  0  0  0
    6.3427   -0.5690    1.9836 O   0  0  0  0  0  0  0  0  0  0  0  0
    5.2027    1.3008    1.0551 C   0  0  2  0  0  0  0  0  0  0  0  0
    5.6336    2.7084    1.1372 C   0  0  0  0  0  0  0  0  0  0  0  0
    4.2100    0.9366    2.0782 N   0  0  0  0  0  0  0  0  0  0  0  0
    3.1368    0.0917    1.7669 C   0  0  0  0  0  0  0  0  0  0  0  0
    3.0831   -0.3485    0.5854 O   0  0  0  0  0  0  0  0  0  0  0  0
    2.0698   -0.3152    2.7171 C   0  0  2  0  0  0  0  0  0  0  0  0
    2.6073   -0.8073    3.9911 C   0  0  0  0  0  0  0  0  0  0  0  0
    1.2353   -1.2777    1.9873 N   0  0  0  0  0  0  0  0  0  0  0  0
    0.2374   -0.8602    1.0960 C   0  0  0  0  0  0  0  0  0  0  0  0
    0.0553    0.3828    0.9318 O   0  0  0  0  0  0  0  0  0  0  0  0
   -0.5967   -1.7990    0.3403 C   0  0  2  0  0  0  0  0  0  0  0  0
    0.2633   -2.7569   -0.4928 C   0  0  0  0  0  0  0  0  0  0  0  0
   -1.4202   -1.0802   -0.5964 N   0  0  0  0  0  0  0  0  0  0  0  0
   -2.7524   -1.2788   -0.9275 C   0  0  0  0  0  0  0  0  0  0  0  0
   -3.4043   -2.2209   -0.3684 O   0  0  0  0  0  0  0  0  0  0  0  0
   -3.4651   -0.4471   -1.9035 C   0  0  2  0  0  0  0  0  0  0  0  0
   -3.4707    1.0254   -1.4570 C   0  0  0  0  0  0  0  0  0  0  0  0
   -4.8081   -0.8328   -2.1505 N   0  0  0  0  0  0  0  0  0  0  0  0
   -5.8853   -0.4945   -1.2875 C   0  0  0  0  0  0  0  0  0  0  0  0
   -5.6167    0.1553   -0.2404 O   0  0  0  0  0  0  0  0  0  0  0  0
   -7.2512   -0.8977   -1.6309 C   0  0  2  0  0  0  0  0  0  0  0  0
   -7.6397    0.0168   -2.8372 C   0  0  0  0  0  0  0  0  0  0  0  0
   -8.2285   -0.5465   -0.6110 N   0  0  0  0  0  0  0  0  0  0  0  0
   -9.5369   -1.0865   -0.6226 C   0  0  0  0  0  0  0  0  0  0  0  0
   -9.9173   -1.8839   -1.5249 O   0  0  0  0  0  0  0  0  0  0  0  0
  -10.4839   -0.7060    0.4434 C   0  0  2  0  0  0  0  0  0  0  0  0
  -10.0389   -1.4818    1.6898 C   0  0  0  0  0  0  0  0  0  0  0  0
  -11.8259   -1.2150    0.1451 N   0  0  0  0  0  0  0  0  0  0  0  0
  -12.9309   -0.3276    0.2040 C   0  0  0  0  0  0  0  0  0  0  0  0
  -12.7254    0.8674    0.5199 O   0  0  0  0  0  0  0  0  0  0  0  0
  -14.3033   -0.7679   -0.0963 C   0  0  2  0  0  0  0  0  0  0  0  0
  -14.3046   -1.2204   -1.5578 C   0  0  0  0  0  0  0  0  0  0  0  0
  -15.2372    0.3313    0.0457 N   0  0  0  0  0  0  0  0  0  0  0  0
  -16.3411    0.2652    0.9247 C   0  0  0  0  0  0  0  0  0  0  0  0
  -16.5093   -0.7822    1.5955 O   0  0  0  0  0  0  0  0  0  0  0  0
  -17.2774    1.4325    1.0383 C   0  0  2  0  0  0  0  0  0  0  0  0
  -17.9295    1.7136   -0.2969 C   0  0  0  0  0  0  0  0  0  0  0  0
  -16.4169    2.5966    1.3888 C   0  0  0  0  0  0  0  0  0  0  0  0
  -15.6167    2.5565    2.6617 C   0  0  0  0  0  0  0  0  0  0  0  0
  -16.3495    3.5779    0.6663 O   0  0  0  0  0  0  0  0  0  0  0  0
    9.6058    0.2633    0.1451 C   0  0  0  0  0  0  0  0  0  0  0  0
    9.4712    1.0890    1.2330 O   0  0  0  0  0  0  0  0  0  0  0  0
   10.8094    0.5872   -0.4869 N   0  0  0  0  0  0  0  0  0  0  0  0
   11.4391    0.1855   -1.7176 C   0  0  0  0  0  0  0  0  0  0  0  0
   12.2183    1.3701   -2.1766 C   0  0  0  0  0  0  0  0  0  0  0  0
   12.1384    2.3927   -1.0629 C   0  0  0  0  0  0  0  0  0  0  0  0
   11.7968    1.5335    0.1179 C   0  0  2  0  0  0  0  0  0  0  0  0
   13.0076    0.8403    0.5933 C   0  0  0  0  0  0  0  0  0  0  0  0
   13.1020   -0.4346    0.4988 O   0  0  0  0  0  0  0  0  0  0  0  0
   14.1124    1.4893    1.1630 N   0  0  0  0  0  0  0  0  0  0  0  0
   15.3401    0.8782    1.6263 C   0  0  0  0  0  0  0  0  0  0  0  0
   16.3896    1.9658    1.5239 C   0  0  0  0  0  0  0  0  0  0  0  0
   15.6596    3.2306    1.1637 C   0  0  0  0  0  0  0  0  0  0  0  0
   14.2337    2.8764    1.4192 C   0  0  0  0  0  0  0  0  0  0  0  0
   13.3172    3.6820    1.7956 O   0  0  0  0  0  0  0  0  0  0  0  0
   10.0713   -4.0997   -2.1699 H   0  0  0  0  0  0  0  0  0  0  0  0
   10.1694   -2.4651   -2.8108 H   0  0  0  0  0  0  0  0  0  0  0  0
   10.8464   -2.8892   -1.1524 H   0  0  0  0  0  0  0  0  0  0  0  0
    8.6458   -3.5450   -0.3440 H   0  0  0  0  0  0  0  0  0  0  0  0
    6.7060   -3.5645   -1.7070 H   0  0  0  0  0  0  0  0  0  0  0  0
    8.0769   -4.6185   -2.3504 H   0  0  0  0  0  0  0  0  0  0  0  0
    7.6184   -3.0049   -3.1404 H   0  0  0  0  0  0  0  0  0  0  0  0
    7.6632   -1.0238   -1.8793 H   0  0  0  0  0  0  0  0  0  0  0  0
    6.9683   -1.8859   -0.5327 H   0  0  0  0  0  0  0  0  0  0  0  0
    8.3394   -1.0885    1.0998 H   0  0  0  0  0  0  0  0  0  0  0  0
    7.3360    1.0853   -0.6156 H   0  0  0  0  0  0  0  0  0  0  0  0
    4.6560    1.1318    0.0754 H   0  0  0  0  0  0  0  0  0  0  0  0
    6.6233    2.8698    1.5936 H   0  0  0  0  0  0  0  0  0  0  0  0
    5.5856    3.1989    0.1254 H   0  0  0  0  0  0  0  0  0  0  0  0
    4.8965    3.2914    1.7600 H   0  0  0  0  0  0  0  0  0  0  0  0
    4.3526    1.3364    3.0212 H   0  0  0  0  0  0  0  0  0  0  0  0
    1.4089    0.5771    2.8657 H   0  0  0  0  0  0  0  0  0  0  0  0
    2.8560    0.1002    4.6219 H   0  0  0  0  0  0  0  0  0  0  0  0
    3.5784   -1.3518    3.9025 H   0  0  0  0  0  0  0  0  0  0  0  0
    1.8820   -1.3708    4.6126 H   0  0  0  0  0  0  0  0  0  0  0  0
    1.4311   -2.2830    2.1766 H   0  0  0  0  0  0  0  0  0  0  0  0
   -1.2626   -2.4454    0.9558 H   0  0  0  0  0  0  0  0  0  0  0  0
    1.2162   -2.2725   -0.7769 H   0  0  0  0  0  0  0  0  0  0  0  0
   -0.2810   -3.0050   -1.4250 H   0  0  0  0  0  0  0  0  0  0  0  0
    0.4729   -3.6860    0.0821 H   0  0  0  0  0  0  0  0  0  0  0  0
   -0.9137   -0.2858   -1.1034 H   0  0  0  0  0  0  0  0  0  0  0  0
   -2.8706   -0.4179   -2.8674 H   0  0  0  0  0  0  0  0  0  0  0  0
   -4.3865    1.5051   -1.8123 H   0  0  0  0  0  0  0  0  0  0  0  0
   -3.3975    1.1344   -0.3612 H   0  0  0  0  0  0  0  0  0  0  0  0
   -2.5899    1.5669   -1.8922 H   0  0  0  0  0  0  0  0  0  0  0  0
   -4.9973   -1.4071   -3.0294 H   0  0  0  0  0  0  0  0  0  0  0  0
   -7.3366   -1.9024   -2.0206 H   0  0  0  0  0  0  0  0  0  0  0  0
   -8.7021   -0.1303   -3.0675 H   0  0  0  0  0  0  0  0  0  0  0  0
   -6.9607   -0.2627   -3.6602 H   0  0  0  0  0  0  0  0  0  0  0  0
   -7.4011    1.0545   -2.5380 H   0  0  0  0  0  0  0  0  0  0  0  0
   -7.9220    0.1169    0.1251 H   0  0  0  0  0  0  0  0  0  0  0  0
  -10.5287    0.3635    0.6185 H   0  0  0  0  0  0  0  0  0  0  0  0
  -10.4872   -1.0599    2.5994 H   0  0  0  0  0  0  0  0  0  0  0  0
   -8.9301   -1.4855    1.6883 H   0  0  0  0  0  0  0  0  0  0  0  0
  -10.3836   -2.5296    1.5149 H   0  0  0  0  0  0  0  0  0  0  0  0
  -12.0033   -2.2083   -0.1103 H   0  0  0  0  0  0  0  0  0  0  0  0
  -14.5902   -1.6420    0.5152 H   0  0  0  0  0  0  0  0  0  0  0  0
  -15.3117   -1.0498   -1.9717 H   0  0  0  0  0  0  0  0  0  0  0  0
  -13.9641   -2.2687   -1.6388 H   0  0  0  0  0  0  0  0  0  0  0  0
  -13.5689   -0.5671   -2.0842 H   0  0  0  0  0  0  0  0  0  0  0  0
  -15.0886    1.1915   -0.5162 H   0  0  0  0  0  0  0  0  0  0  0  0
  -18.0108    1.1819    1.8304 H   0  0  0  0  0  0  0  0  0  0  0  0
  -18.1546    2.7969   -0.3665 H   0  0  0  0  0  0  0  0  0  0  0  0
  -17.2413    1.4229   -1.1281 H   0  0  0  0  0  0  0  0  0  0  0  0
  -18.8462    1.1103   -0.4124 H   0  0  0  0  0  0  0  0  0  0  0  0
  -14.6569    2.0399    2.4994 H   0  0  0  0  0  0  0  0  0  0  0  0
  -16.2042    2.0501    3.4543 H   0  0  0  0  0  0  0  0  0  0  0  0
  -15.4425    3.6120    2.9525 H   0  0  0  0  0  0  0  0  0  0  0  0
   12.0215   -0.7153   -1.5616 H   0  0  0  0  0  0  0  0  0  0  0  0
   10.6567   -0.0975   -2.4866 H   0  0  0  0  0  0  0  0  0  0  0  0
   11.7713    1.8366   -3.0665 H   0  0  0  0  0  0  0  0  0  0  0  0
   13.2695    1.1333   -2.4366 H   0  0  0  0  0  0  0  0  0  0  0  0
   11.2547    3.0778   -1.2162 H   0  0  0  0  0  0  0  0  0  0  0  0
   13.0544    2.9826   -0.9706 H   0  0  0  0  0  0  0  0  0  0  0  0
   11.2980    2.1128    0.9314 H   0  0  0  0  0  0  0  0  0  0  0  0
   15.2736    0.4282    2.6253 H   0  0  0  0  0  0  0  0  0  0  0  0
   15.6143    0.0620    0.8985 H   0  0  0  0  0  0  0  0  0  0  0  0
   17.1658    1.6925    0.7680 H   0  0  0  0  0  0  0  0  0  0  0  0
   16.9184    2.0800    2.4947 H   0  0  0  0  0  0  0  0  0  0  0  0
   15.8121    3.4935    0.0810 H   0  0  0  0  0  0  0  0  0  0  0  0
   16.0123    4.0351    1.8421 H   0  0  0  0  0  0  0  0  0  0  0  0
  1  2  1  0
  2  3  1  0
  2  4  1  0
  4  5  1  0
  5  6  1  0
  6  7  1  0
  7  8  2  0
  7  9  1  0
  9 10  1  0
  9 11  1  0
 11 12  1  0
 12 13  2  0
 12 14  1  0
 14 15  1  0
 14 16  1  0
 16 17  1  0
 17 18  2  0
 17 19  1  0
 19 20  1  0
 19 21  1  0
 21 22  1  0
 22 23  2  0
 22 24  1  0
 24 25  1  0
 24 26  1  0
 26 27  1  0
 27 28  2  0
 27 29  1  0
 29 30  1  0
 29 31  1  0
 31 32  1  0
 32 33  2  0
 32 34  1  0
 34 35  1  0
 34 36  1  0
 36 37  1  0
 37 38  2  0
 37 39  1  0
 39 40  1  0
 39 41  1  0
 41 42  1  0
 42 43  2  0
 42 44  1  0
 44 45  1  0
 44 46  1  0
 46 47  1  0
 46 48  2  0
  5 49  1  0
 49 50  2  0
 49 51  1  0
 51 52  1  0
 52 53  1  0
 53 54  1  0
 54 55  1  0
 55 56  1  0
 56 57  2  0
 56 58  1  0
 58 59  1  0
 59 60  1  0
 60 61  1  0
 61 62  1  0
 62 63  2  0
 55 51  1  0
 62 58  1  0
  1 64  1  0
  1 65  1  0
  1 66  1  0
  2 67  1  0
  3 68  1  0
  3 69  1  0
  3 70  1  0
  4 71  1  0
  4 72  1  0
  5 73  1  1
  6 74  1  0
  9 75  1  6
 10 76  1  0
 10 77  1  0
 10 78  1  0
 11 79  1  0
 14 80  1  1
 15 81  1  0
 15 82  1  0
 15 83  1  0
 16 84  1  0
 19 85  1  1
 20 86  1  0
 20 87  1  0
 20 88  1  0
 21 89  1  0
 24 90  1  6
 25 91  1  0
 25 92  1  0
 25 93  1  0
 26 94  1  0
 29 95  1  6
 30 96  1  0
 30 97  1  0
 30 98  1  0
 31 99  1  0
 34100  1  1
 35101  1  0
 35102  1  0
 35103  1  0
 36104  1  0
 39105  1  1
 40106  1  0
 40107  1  0
 40108  1  0
 41109  1  0
 44110  1  1
 45111  1  0
 45112  1  0
 45113  1  0
 47114  1  0
 47115  1  0
 47116  1  0
 52117  1  0
 52118  1  0
 53119  1  0
 53120  1  0
 54121  1  0
 54122  1  0
 55123  1  1
 59124  1  0
 59125  1  0
 60126  1  0
 60127  1  0
 61128  1  0
 61129  1  0
M  END
$$$$
[H]N(C(=O)[C@@]([H])(N([H])C(=O)[C@@]([H])(N([H])C(=O)[C@@]([H])(N([H])C(=O)[C@@]([H])(C(=O)C([H])([H])[H])C([H])([H])[H])C([H])([H])[H])C([H])([H])[H])C([H])([H])[H])[C@]([H])(C(=O)N([H])[C@]([H])(C(=O)N([H])[C@]([H])(C(=O)N([H])[C@]([H])(C(=O)N([H])[C@]([H])(C(=O)N1C([H])([H])C([H])([H])C([H])([H])[C@]1([H])C(=O)N(C([H])([H])[H])C([H])([H])[H])C([H])([H])C([H])(C([H])([H])[H])C([H])([H])[H])C([H])([H])[H])C([H])([H])[H])C([H])([H])[H])C([H])([H])[H]
     RDKit          3D

126126  0  0  0  0  0  0  0  0999 V2000
   11.4917   -1.4429   -2.5824 C   0  0  0  0  0  0  0  0  0  0  0  0
   10.0574   -1.3397   -2.5511 C   0  0  0  0  0  0  0  0  0  0  0  0
    9.5711   -1.0878   -4.0316 C   0  0  0  0  0  0  0  0  0  0  0  0
    9.2332   -0.5015   -1.6854 C   0  0  0  0  0  0  0  0  0  0  0  0
    9.2021   -0.5435   -0.2532 C   0  0  2  0  0  0  0  0  0  0  0  0
    8.0212    0.3031    0.2218 N   0  0  0  0  0  0  0  0  0  0  0  0
    6.7941   -0.2021    0.6006 C   0  0  0  0  0  0  0  0  0  0  0  0
    6.5515   -1.4333    0.5766 O   0  0  0  0  0  0  0  0  0  0  0  0
    5.7035    0.7038    1.0556 C   0  0  2  0  0  0  0  0  0  0  0  0
    6.1613    1.6033    2.1569 C   0  0  0  0  0  0  0  0  0  0  0  0
    4.4988   -0.0225    1.2972 N   0  0  0  0  0  0  0  0  0  0  0  0
    3.3559    0.1635    0.4295 C   0  0  0  0  0  0  0  0  0  0  0  0
    3.3926    0.9610   -0.5463 O   0  0  0  0  0  0  0  0  0  0  0  0
    2.1144   -0.5743    0.6507 C   0  0  2  0  0  0  0  0  0  0  0  0
    2.4363   -2.0733    0.6486 C   0  0  0  0  0  0  0  0  0  0  0  0
    1.0946   -0.3405   -0.3313 N   0  0  0  0  0  0  0  0  0  0  0  0
   -0.2542   -0.5638   -0.1745 C   0  0  0  0  0  0  0  0  0  0  0  0
   -0.6355   -1.0598    0.9865 O   0  0  0  0  0  0  0  0  0  0  0  0
   -1.3718   -0.3405   -1.0909 C   0  0  2  0  0  0  0  0  0  0  0  0
   -2.1868    0.8929   -0.5637 C   0  0  0  0  0  0  0  0  0  0  0  0
   -2.2933   -1.4437   -0.9689 N   0  0  0  0  0  0  0  0  0  0  0  0
   -3.5942   -1.3442   -1.6242 C   0  0  0  0  0  0  0  0  0  0  0  0
   -3.8541   -0.3301   -2.2410 O   0  0  0  0  0  0  0  0  0  0  0  0
   -4.4652   -2.5350   -1.4403 C   0  0  2  0  0  0  0  0  0  0  0  0
   -3.8335   -3.7096   -2.2317 C   0  0  0  0  0  0  0  0  0  0  0  0
   -5.8124   -2.3722   -1.7509 N   0  0  0  0  0  0  0  0  0  0  0  0
   -6.4802   -1.5866   -2.6851 C   0  0  0  0  0  0  0  0  0  0  0  0
   -5.9958   -0.8091   -3.5386 O   0  0  0  0  0  0  0  0  0  0  0  0
   -8.0041   -1.6886   -2.6526 C   0  0  2  0  0  0  0  0  0  0  0  0
   -8.4207   -2.7073   -3.7066 C   0  0  0  0  0  0  0  0  0  0  0  0
   -8.5547   -0.4148   -2.9580 N   0  0  0  0  0  0  0  0  0  0  0  0
   -9.7228    0.0113   -2.2744 C   0  0  0  0  0  0  0  0  0  0  0  0
  -10.2468   -0.7653   -1.4390 O   0  0  0  0  0  0  0  0  0  0  0  0
  -10.3086    1.3380   -2.5381 C   0  0  2  0  0  0  0  0  0  0  0  0
   -9.2404    2.3565   -2.1214 C   0  0  0  0  0  0  0  0  0  0  0  0
  -11.5411    1.4774   -1.8440 N   0  0  0  0  0  0  0  0  0  0  0  0
  -12.0355    2.4309   -0.9547 C   0  0  0  0  0  0  0  0  0  0  0  0
  -11.3398    3.4029   -0.5889 O   0  0  0  0  0  0  0  0  0  0  0  0
  -13.4263    2.2633   -0.4488 C   0  0  2  0  0  0  0  0  0  0  0  0
  -14.3490    3.2065   -1.2494 C   0  0  0  0  0  0  0  0  0  0  0  0
  -13.5154    2.6449    0.9780 N   0  0  0  0  0  0  0  0  0  0  0  0
  -14.3069    1.7675    1.7713 C   0  0  0  0  0  0  0  0  0  0  0  0
  -14.8660    0.7878    1.3275 O   0  0  0  0  0  0  0  0  0  0  0  0
  -14.4246    2.1098    3.2285 C   0  0  2  0  0  0  0  0  0  0  0  0
  -13.0604    2.0131    3.9187 C   0  0  0  0  0  0  0  0  0  0  0  0
  -15.3282    1.1416    3.9136 C   0  0  0  0  0  0  0  0  0  0  0  0
  -15.0932   -0.3155    3.9706 C   0  0  0  0  0  0  0  0  0  0  0  0
  -16.3397    1.6000    4.4669 O   0  0  0  0  0  0  0  0  0  0  0  0
   10.2072   -0.2269    0.7229 C   0  0  0  0  0  0  0  0  0  0  0  0
    9.7231   -0.5098    1.9595 O   0  0  0  0  0  0  0  0  0  0  0  0
   11.4821    0.2772    0.7992 N   0  0  0  0  0  0  0  0  0  0  0  0
   12.3980    0.8737   -0.1206 C   0  0  0  0  0  0  0  0  0  0  0  0
   13.0592    2.0237    0.6284 C   0  0  0  0  0  0  0  0  0  0  0  0
   12.7682    1.7502    2.0817 C   0  0  0  0  0  0  0  0  0  0  0  0
   12.2512    0.3201    2.0806 C   0  0  2  0  0  0  0  0  0  0  0  0
   13.2972   -0.7017    2.1492 C   0  0  0  0  0  0  0  0  0  0  0  0
   13.4006   -1.4955    1.1626 O   0  0  0  0  0  0  0  0  0  0  0  0
   14.1465   -0.7858    3.2627 N   0  0  0  0  0  0  0  0  0  0  0  0
   14.1152    0.0079    4.4509 C   0  0  0  0  0  0  0  0  0  0  0  0
   15.2125   -1.8103    3.2093 C   0  0  0  0  0  0  0  0  0  0  0  0
   11.8028   -2.1376   -3.4358 H   0  0  0  0  0  0  0  0  0  0  0  0
   11.9947   -1.7942   -1.6524 H   0  0  0  0  0  0  0  0  0  0  0  0
   11.9460   -0.4621   -2.9156 H   0  0  0  0  0  0  0  0  0  0  0  0
    9.6580   -2.4467   -2.4387 H   0  0  0  0  0  0  0  0  0  0  0  0
    8.4898   -0.8278   -3.9807 H   0  0  0  0  0  0  0  0  0  0  0  0
   10.0817   -0.1677   -4.4183 H   0  0  0  0  0  0  0  0  0  0  0  0
    9.7015   -1.9807   -4.6326 H   0  0  0  0  0  0  0  0  0  0  0  0
    8.1352   -0.6936   -2.0363 H   0  0  0  0  0  0  0  0  0  0  0  0
    9.3376    0.5703   -2.1024 H   0  0  0  0  0  0  0  0  0  0  0  0
    8.7750   -1.5859    0.0285 H   0  0  0  0  0  0  0  0  0  0  0  0
    8.2064    1.3369    0.2424 H   0  0  0  0  0  0  0  0  0  0  0  0
    5.5043    1.3864    0.1687 H   0  0  0  0  0  0  0  0  0  0  0  0
    5.2695    2.0401    2.6612 H   0  0  0  0  0  0  0  0  0  0  0  0
    6.7551    1.0174    2.8800 H   0  0  0  0  0  0  0  0  0  0  0  0
    6.7759    2.4426    1.7244 H   0  0  0  0  0  0  0  0  0  0  0  0
    4.3710   -0.7070    2.0678 H   0  0  0  0  0  0  0  0  0  0  0  0
    1.6586   -0.3427    1.6641 H   0  0  0  0  0  0  0  0  0  0  0  0
    3.2682   -2.2294    1.3751 H   0  0  0  0  0  0  0  0  0  0  0  0
    2.7464   -2.4187   -0.3422 H   0  0  0  0  0  0  0  0  0  0  0  0
    1.5338   -2.6410    0.9756 H   0  0  0  0  0  0  0  0  0  0  0  0
    1.4319    0.0556   -1.2662 H   0  0  0  0  0  0  0  0  0  0  0  0
   -1.0964   -0.0741   -2.0983 H   0  0  0  0  0  0  0  0  0  0  0  0
   -1.4659    1.5313    0.0109 H   0  0  0  0  0  0  0  0  0  0  0  0
   -2.5435    1.4968   -1.4179 H   0  0  0  0  0  0  0  0  0  0  0  0
   -2.9917    0.5246    0.0647 H   0  0  0  0  0  0  0  0  0  0  0  0
   -2.0391   -2.2771   -0.4397 H   0  0  0  0  0  0  0  0  0  0  0  0
   -4.3318   -2.7759   -0.3261 H   0  0  0  0  0  0  0  0  0  0  0  0
   -2.7916   -3.7538   -1.9278 H   0  0  0  0  0  0  0  0  0  0  0  0
   -4.4077   -4.6311   -2.0787 H   0  0  0  0  0  0  0  0  0  0  0  0
   -3.8088   -3.4046   -3.3191 H   0  0  0  0  0  0  0  0  0  0  0  0
   -6.4958   -2.9972   -1.1337 H   0  0  0  0  0  0  0  0  0  0  0  0
   -8.3328   -2.0579   -1.6754 H   0  0  0  0  0  0  0  0  0  0  0  0
   -9.1288   -2.2292   -4.4036 H   0  0  0  0  0  0  0  0  0  0  0  0
   -7.5434   -3.0746   -4.2451 H   0  0  0  0  0  0  0  0  0  0  0  0
   -8.9616   -3.5453   -3.1816 H   0  0  0  0  0  0  0  0  0  0  0  0
   -8.1161    0.2000   -3.6676 H   0  0  0  0  0  0  0  0  0  0  0  0
  -10.4563    1.5961   -3.6176 H   0  0  0  0  0  0  0  0  0  0  0  0
   -8.8890    2.1729   -1.1236 H   0  0  0  0  0  0  0  0  0  0  0  0
   -9.5910    3.3951   -2.2233 H   0  0  0  0  0  0  0  0  0  0  0  0
   -8.3777    2.2783   -2.8671 H   0  0  0  0  0  0  0  0  0  0  0  0
  -12.2578    0.6686   -2.0630 H   0  0  0  0  0  0  0  0  0  0  0  0
  -13.7433    1.2341   -0.5446 H   0  0  0  0  0  0  0  0  0  0  0  0
  -13.9120    3.3213   -2.2479 H   0  0  0  0  0  0  0  0  0  0  0  0
  -14.3269    4.1779   -0.7261 H   0  0  0  0  0  0  0  0  0  0  0  0
  -15.3317    2.7269   -1.2418 H   0  0  0  0  0  0  0  0  0  0  0  0
  -13.0506    3.4500    1.3312 H   0  0  0  0  0  0  0  0  0  0  0  0
  -14.8029    3.1314    3.3652 H   0  0  0  0  0  0  0  0  0  0  0  0
  -13.1804    2.2070    4.9892 H   0  0  0  0  0  0  0  0  0  0  0  0
  -12.6518    0.9779    3.8026 H   0  0  0  0  0  0  0  0  0  0  0  0
  -12.3429    2.7076    3.4724 H   0  0  0  0  0  0  0  0  0  0  0  0
  -15.3384   -0.7014    5.0087 H   0  0  0  0  0  0  0  0  0  0  0  0
  -14.0126   -0.5961    3.8386 H   0  0  0  0  0  0  0  0  0  0  0  0
  -15.6651   -0.8812    3.1970 H   0  0  0  0  0  0  0  0  0  0  0  0
   11.8781    1.2530   -1.0349 H   0  0  0  0  0  0  0  0  0  0  0  0
   13.1399    0.1619   -0.4860 H   0  0  0  0  0  0  0  0  0  0  0  0
   14.1452    1.9196    0.4610 H   0  0  0  0  0  0  0  0  0  0  0  0
   12.6227    2.9422    0.2467 H   0  0  0  0  0  0  0  0  0  0  0  0
   13.6513    1.9146    2.7016 H   0  0  0  0  0  0  0  0  0  0  0  0
   11.8741    2.3670    2.3704 H   0  0  0  0  0  0  0  0  0  0  0  0
   11.5848    0.2200    2.9358 H   0  0  0  0  0  0  0  0  0  0  0  0
   14.4100   -0.6314    5.3506 H   0  0  0  0  0  0  0  0  0  0  0  0
   13.1160    0.4168    4.7210 H   0  0  0  0  0  0  0  0  0  0  0  0
   14.8440    0.8453    4.4836 H   0  0  0  0  0  0  0  0  0  0  0  0
   16.1670   -1.2027    3.3412 H   0  0  0  0  0  0  0  0  0  0  0  0
   15.0645   -2.4815    4.0581 H   0  0  0  0  0  0  0  0  0  0  0  0
   15.2050   -2.3310    2.2549 H   0  0  0  0  0  0  0  0  0  0  0  0
  1  2  1  0
  2  3  1  0
  2  4  1  0
  4  5  1  0
  5  6  1  0
  6  7  1  0
  7  8  2  0
  7  9  1  0
  9 10  1  0
  9 11  1  0
 11 12  1  0
 12 13  2  0
 12 14  1  0
 14 15  1  0
 14 16  1  0
 16 17  1  0
 17 18  2  0
 17 19  1  0
 19 20  1  0
 19 21  1  0
 21 22  1  0
 22 23  2  0
 22 24  1  0
 24 25  1  0
 24 26  1  0
 26 27  1  0
 27 28  2  0
 27 29  1  0
 29 30  1  0
 29 31  1  0
 31 32  1  0
 32 33  2  0
 32 34  1  0
 34 35  1  0
 34 36  1  0
 36 37  1  0
 37 38  2  0
 37 39  1  0
 39 40  1  0
 39 41  1  0
 41 42  1  0
 42 43  2  0
 42 44  1  0
 44 45  1  0
 44 46  1  0
 46 47  1  0
 46 48  2  0
  5 49  1  0
 49 50  2  0
 49 51  1  0
 51 52  1  0
 52 53  1  0
 53 54  1  0
 54 55  1  0
 55 56  1  0
 56 57  2  0
 56 58  1  0
 58 59  1  0
 58 60  1  0
 55 51  1  0
  1 61  1  0
  1 62  1  0
  1 63  1  0
  2 64  1  0
  3 65  1  0
  3 66  1  0
  3 67  1  0
  4 68  1  0
  4 69  1  0
  5 70  1  6
  6 71  1  0
  9 72  1  6
 10 73  1  0
 10 74  1  0
 10 75  1  0
 11 76  1  0
 14 77  1  1
 15 78  1  0
 15 79  1  0
 15 80  1  0
 16 81  1  0
 19 82  1  6
 20 83  1  0
 20 84  1  0
 20 85  1  0
 21 86  1  0
 24 87  1  1
 25 88  1  0
 25 89  1  0
 25 90  1  0
 26 91  1  0
 29 92  1  1
 30 93  1  0
 30 94  1  0
 30 95  1  0
 31 96  1  0
 34 97  1  6
 35 98  1  0
 35 99  1  0
 35100  1  0
 36101  1  0
 39102  1  1
 40103  1  0
 40104  1  0
 40105  1  0
 41106  1  0
 44107  1  6
 45108  1  0
 45109  1  0
 45110  1  0
 47111  1  0
 47112  1  0
 47113  1  0
 52114  1  0
 52115  1  0
 53116  1  0
 53117  1  0
 54118  1  0
 54119  1  0
 55120  1  1
 59121  1  0
 59122  1  0
 59123  1  0
 60124  1  0
 60125  1  0
 60126  1  0
M  END
$$$$
[H]N(C(=O)[C@]([H])(C(=O)C([H])([H])[H])C([H])([H])[H])[C@]([H])(C(=O)N([H])[C@]([H])(C(=O)N([H])[C@]([H])(C(=O)N([H])[C@]([H])(C(=O)N([H])[C@]([H])(C(=O)N([H])[C@]([H])(C(=O)N([H])[C@]([H])(C(=O)N([H])[C@]([H])(C(=O)N1C([H])([H])C([H])([H])C([H])([H])[C@]1([H])C(=O)N(C([H])([H])[H])C([H])([H])[H])C([H])([H])C([H])(C([H])([H])[H])C([H])([H])[H])C([H])([H])[H])C([H])([H])[H])C([H])([H])[H])C([H])([H])[H])C([H])([H])[H])C([H])([H])[H])C([H])([H])[H]
     RDKit          3D

126126  0  0  0  0  0  0  0  0999 V2000
  -11.5872   -3.4994    0.1324 C   0  0  0  0  0  0  0  0  0  0  0  0
  -10.2528   -3.4224   -0.4388 C   0  0  0  0  0  0  0  0  0  0  0  0
  -10.2794   -3.7255   -1.9609 C   0  0  0  0  0  0  0  0  0  0  0  0
   -9.2733   -2.3771   -0.2044 C   0  0  0  0  0  0  0  0  0  0  0  0
   -9.3945   -0.9675   -0.5126 C   0  0  2  0  0  0  0  0  0  0  0  0
   -8.0598   -0.3755   -0.2594 N   0  0  0  0  0  0  0  0  0  0  0  0
   -6.8954    0.1425   -0.0310 C   0  0  0  0  0  0  0  0  0  0  0  0
   -6.4673    0.5604    1.1107 O   0  0  0  0  0  0  0  0  0  0  0  0
   -5.8101    0.3395   -1.0838 C   0  0  2  0  0  0  0  0  0  0  0  0
   -5.6757   -0.9425   -1.8930 C   0  0  0  0  0  0  0  0  0  0  0  0
   -4.6094    0.7788   -0.5043 N   0  0  0  0  0  0  0  0  0  0  0  0
   -3.2589    0.5679   -0.9289 C   0  0  0  0  0  0  0  0  0  0  0  0
   -3.0240   -0.1028   -1.9289 O   0  0  0  0  0  0  0  0  0  0  0  0
   -2.1720    1.1631   -0.1382 C   0  0  2  0  0  0  0  0  0  0  0  0
   -2.1125    2.6690   -0.5516 C   0  0  0  0  0  0  0  0  0  0  0  0
   -0.8703    0.6426   -0.3480 N   0  0  0  0  0  0  0  0  0  0  0  0
    0.0680    0.7585    0.7470 C   0  0  0  0  0  0  0  0  0  0  0  0
   -0.3060    1.3186    1.8190 O   0  0  0  0  0  0  0  0  0  0  0  0
    1.4476    0.2640    0.6944 C   0  0  2  0  0  0  0  0  0  0  0  0
    1.5818   -1.0478    1.4628 C   0  0  0  0  0  0  0  0  0  0  0  0
    2.3668    1.2566    1.3171 N   0  0  0  0  0  0  0  0  0  0  0  0
    3.4637    1.7330    0.5917 C   0  0  0  0  0  0  0  0  0  0  0  0
    3.7203    1.3370   -0.6008 O   0  0  0  0  0  0  0  0  0  0  0  0
    4.4373    2.7570    1.1535 C   0  0  2  0  0  0  0  0  0  0  0  0
    3.9703    4.1071    0.7614 C   0  0  0  0  0  0  0  0  0  0  0  0
    5.7223    2.3624    0.5429 N   0  0  0  0  0  0  0  0  0  0  0  0
    6.5304    1.3652    1.1900 C   0  0  0  0  0  0  0  0  0  0  0  0
    6.0484    0.9159    2.2798 O   0  0  0  0  0  0  0  0  0  0  0  0
    7.7888    0.9169    0.6135 C   0  0  2  0  0  0  0  0  0  0  0  0
    7.6782    0.7231   -0.9087 C   0  0  0  0  0  0  0  0  0  0  0  0
    8.2157   -0.3637    1.1796 N   0  0  0  0  0  0  0  0  0  0  0  0
    9.5338   -0.7528    1.1561 C   0  0  0  0  0  0  0  0  0  0  0  0
   10.3812    0.0605    0.6388 O   0  0  0  0  0  0  0  0  0  0  0  0
   10.0814   -2.0239    1.6512 C   0  0  2  0  0  0  0  0  0  0  0  0
   10.8366   -1.8478    2.9632 C   0  0  0  0  0  0  0  0  0  0  0  0
   10.9664   -2.5618    0.6276 N   0  0  0  0  0  0  0  0  0  0  0  0
   12.2929   -2.2325    0.3987 C   0  0  0  0  0  0  0  0  0  0  0  0
   12.8662   -1.3874    1.1528 O   0  0  0  0  0  0  0  0  0  0  0  0
   13.1120   -2.8151   -0.7206 C   0  0  2  0  0  0  0  0  0  0  0  0
   13.4880   -4.2243   -0.4638 C   0  0  0  0  0  0  0  0  0  0  0  0
   14.3260   -1.9937   -0.8462 N   0  0  0  0  0  0  0  0  0  0  0  0
   14.2824   -0.8400   -1.6831 C   0  0  0  0  0  0  0  0  0  0  0  0
   13.1738   -0.6200   -2.2872 O   0  0  0  0  0  0  0  0  0  0  0  0
   15.3605    0.1157   -1.9240 C   0  0  1  0  0  0  0  0  0  0  0  0
   16.3868   -0.2914   -2.9297 C   0  0  0  0  0  0  0  0  0  0  0  0
   14.7856    1.4803   -2.1894 C   0  0  0  0  0  0  0  0  0  0  0  0
   13.8871    2.0287   -1.1446 C   0  0  0  0  0  0  0  0  0  0  0  0
   15.0248    2.1005   -3.1783 O   0  0  0  0  0  0  0  0  0  0  0  0
  -10.3853    0.0140   -0.2177 C   0  0  0  0  0  0  0  0  0  0  0  0
  -10.1599    1.1396   -0.9825 O   0  0  0  0  0  0  0  0  0  0  0  0
  -11.5020    0.2600    0.5751 N   0  0  0  0  0  0  0  0  0  0  0  0
  -12.1190   -0.4141    1.6979 C   0  0  0  0  0  0  0  0  0  0  0  0
  -12.2586    0.7562    2.7017 C   0  0  0  0  0  0  0  0  0  0  0  0
  -12.5339    1.9332    1.8013 C   0  0  0  0  0  0  0  0  0  0  0  0
  -12.3860    1.4323    0.3998 C   0  0  2  0  0  0  0  0  0  0  0  0
  -13.7095    1.0783   -0.1640 C   0  0  0  0  0  0  0  0  0  0  0  0
  -14.0196   -0.1273   -0.4932 O   0  0  0  0  0  0  0  0  0  0  0  0
  -14.7324    2.0159   -0.3921 N   0  0  0  0  0  0  0  0  0  0  0  0
  -14.5107    3.4166   -0.1323 C   0  0  0  0  0  0  0  0  0  0  0  0
  -16.0284    1.5933   -0.8613 C   0  0  0  0  0  0  0  0  0  0  0  0
  -12.1068   -4.4917   -0.0798 H   0  0  0  0  0  0  0  0  0  0  0  0
  -12.2873   -2.7535   -0.3318 H   0  0  0  0  0  0  0  0  0  0  0  0
  -11.5900   -3.4543    1.2409 H   0  0  0  0  0  0  0  0  0  0  0  0
   -9.7256   -4.3943   -0.0584 H   0  0  0  0  0  0  0  0  0  0  0  0
  -10.9309   -4.6104   -2.0706 H   0  0  0  0  0  0  0  0  0  0  0  0
   -9.2599   -4.0541   -2.2173 H   0  0  0  0  0  0  0  0  0  0  0  0
  -10.6459   -2.8494   -2.5248 H   0  0  0  0  0  0  0  0  0  0  0  0
   -8.3309   -2.7230   -0.8084 H   0  0  0  0  0  0  0  0  0  0  0  0
   -8.7995   -2.5257    0.8560 H   0  0  0  0  0  0  0  0  0  0  0  0
   -9.3260   -0.9719   -1.7176 H   0  0  0  0  0  0  0  0  0  0  0  0
   -8.4106   -0.3437    1.0450 H   0  0  0  0  0  0  0  0  0  0  0  0
   -6.1219    1.0781   -1.8326 H   0  0  0  0  0  0  0  0  0  0  0  0
   -5.1124   -1.7296   -1.4172 H   0  0  0  0  0  0  0  0  0  0  0  0
   -6.6975   -1.2270   -2.2758 H   0  0  0  0  0  0  0  0  0  0  0  0
   -5.1427   -0.6418   -2.8401 H   0  0  0  0  0  0  0  0  0  0  0  0
   -4.6882    1.3717    0.4046 H   0  0  0  0  0  0  0  0  0  0  0  0
   -2.4216    1.2079    0.9307 H   0  0  0  0  0  0  0  0  0  0  0  0
   -3.1479    2.9957   -0.6426 H   0  0  0  0  0  0  0  0  0  0  0  0
   -1.5543    2.7206   -1.4905 H   0  0  0  0  0  0  0  0  0  0  0  0
   -1.5994    3.2019    0.2953 H   0  0  0  0  0  0  0  0  0  0  0  0
   -0.5451    0.1862   -1.2199 H   0  0  0  0  0  0  0  0  0  0  0  0
    1.7535    0.0780   -0.3442 H   0  0  0  0  0  0  0  0  0  0  0  0
    0.5817   -1.5132    1.4713 H   0  0  0  0  0  0  0  0  0  0  0  0
    2.2850   -1.6750    0.9210 H   0  0  0  0  0  0  0  0  0  0  0  0
    1.8633   -0.8716    2.5294 H   0  0  0  0  0  0  0  0  0  0  0  0
    2.1311    1.5454    2.2837 H   0  0  0  0  0  0  0  0  0  0  0  0
    4.4298    2.5733    2.2170 H   0  0  0  0  0  0  0  0  0  0  0  0
    4.7821    4.7601    0.3843 H   0  0  0  0  0  0  0  0  0  0  0  0
    3.1581    4.0060   -0.0225 H   0  0  0  0  0  0  0  0  0  0  0  0
    3.5031    4.6319    1.6317 H   0  0  0  0  0  0  0  0  0  0  0  0
    6.0154    2.7930   -0.3165 H   0  0  0  0  0  0  0  0  0  0  0  0
    8.6033    1.6435    0.7487 H   0  0  0  0  0  0  0  0  0  0  0  0
    7.6621   -0.3671   -1.1641 H   0  0  0  0  0  0  0  0  0  0  0  0
    8.5817    1.1509   -1.3710 H   0  0  0  0  0  0  0  0  0  0  0  0
    6.7849    1.2393   -1.2517 H   0  0  0  0  0  0  0  0  0  0  0  0
    7.4250   -0.9379    1.5815 H   0  0  0  0  0  0  0  0  0  0  0  0
    9.3088   -2.7694    1.8778 H   0  0  0  0  0  0  0  0  0  0  0  0
   11.3894   -0.9053    2.9433 H   0  0  0  0  0  0  0  0  0  0  0  0
   11.4359   -2.7489    3.1968 H   0  0  0  0  0  0  0  0  0  0  0  0
   10.0598   -1.7547    3.7490 H   0  0  0  0  0  0  0  0  0  0  0  0
   10.5072   -3.2821   -0.0069 H   0  0  0  0  0  0  0  0  0  0  0  0
   12.4938   -2.6389   -1.6225 H   0  0  0  0  0  0  0  0  0  0  0  0
   14.5911   -4.3191   -0.3880 H   0  0  0  0  0  0  0  0  0  0  0  0
   12.9684   -4.6537    0.4276 H   0  0  0  0  0  0  0  0  0  0  0  0
   13.2275   -4.8181   -1.3908 H   0  0  0  0  0  0  0  0  0  0  0  0
   15.1724   -2.2547   -0.3532 H   0  0  0  0  0  0  0  0  0  0  0  0
   15.9298    0.2198   -0.9319 H   0  0  0  0  0  0  0  0  0  0  0  0
   16.3458   -1.3936   -3.1513 H   0  0  0  0  0  0  0  0  0  0  0  0
   16.2762    0.3013   -3.8961 H   0  0  0  0  0  0  0  0  0  0  0  0
   17.4361   -0.0888   -2.5906 H   0  0  0  0  0  0  0  0  0  0  0  0
   14.4920    2.6270   -0.4462 H   0  0  0  0  0  0  0  0  0  0  0  0
   13.0883    2.6816   -1.5806 H   0  0  0  0  0  0  0  0  0  0  0  0
   13.4102    1.1823   -0.5683 H   0  0  0  0  0  0  0  0  0  0  0  0
  -11.4575   -1.1827    2.1612 H   0  0  0  0  0  0  0  0  0  0  0  0
  -13.1216   -0.8023    1.5148 H   0  0  0  0  0  0  0  0  0  0  0  0
  -13.0178    0.5600    3.4599 H   0  0  0  0  0  0  0  0  0  0  0  0
  -11.2440    0.8640    3.1772 H   0  0  0  0  0  0  0  0  0  0  0  0
  -13.5786    2.2642    2.0429 H   0  0  0  0  0  0  0  0  0  0  0  0
  -11.8231    2.7788    2.0185 H   0  0  0  0  0  0  0  0  0  0  0  0
  -11.8575    2.1805   -0.2623 H   0  0  0  0  0  0  0  0  0  0  0  0
  -14.9461    4.0693   -0.9653 H   0  0  0  0  0  0  0  0  0  0  0  0
  -15.0868    3.6633    0.7670 H   0  0  0  0  0  0  0  0  0  0  0  0
  -13.4388    3.6909    0.0085 H   0  0  0  0  0  0  0  0  0  0  0  0
  -16.2157    0.5629   -0.4372 H   0  0  0  0  0  0  0  0  0  0  0  0
  -16.0943    1.5048   -1.9388 H   0  0  0  0  0  0  0  0  0  0  0  0
  -16.7978    2.2654   -0.4232 H   0  0  0  0  0  0  0  0  0  0  0  0
  1  2  1  0
  2  3  1  0
  2  4  1  0
  4  5  1  0
  5  6  1  0
  6  7  1  0
  7  8  2  0
  7  9  1  0
  9 10  1  0
  9 11  1  0
 11 12  1  0
 12 13  2  0
 12 14  1  0
 14 15  1  0
 14 16  1  0
 16 17  1  0
 17 18  2  0
 17 19  1  0
 19 20  1  0
 19 21  1  0
 21 22  1  0
 22 23  2  0
 22 24  1  0
 24 25  1  0
 24 26  1  0
 26 27  1  0
 27 28  2  0
 27 29  1  0
 29 30  1  0
 29 31  1  0
 31 32  1  0
 32 33  2  0
 32 34  1  0
 34 35  1  0
 34 36  1  0
 36 37  1  0
 37 38  2  0
 37 39  1  0
 39 40  1  0
 39 41  1  0
 41 42  1  0
 42 43  2  0
 42 44  1  0
 44 45  1  0
 44 46  1  0
 46 47  1  0
 46 48  2  0
  5 49  1  0
 49 50  2  0
 49 51  1  0
 51 52  1  0
 52 53  1  0
 53 54  1  0
 54 55  1  0
 55 56  1  0
 56 57  2  0
 56 58  1  0
 58 59  1  0
 58 60  1  0
 55 51  1  0
  1 61  1  0
  1 62  1  0
  1 63  1  0
  2 64  1  0
  3 65  1  0
  3 66  1  0
  3 67  1  0
  4 68  1  0
  4 69  1  0
  5 70  1  6
  6 71  1  0
  9 72  1  6
 10 73  1  0
 10 74  1  0
 10 75  1  0
 11 76  1  0
 14 77  1  1
 15 78  1  0
 15 79  1  0
 15 80  1  0
 16 81  1  0
 19 82  1  6
 20 83  1  0
 20 84  1  0
 20 85  1  0
 21 86  1  0
 24 87  1  1
 25 88  1  0
 25 89  1  0
 25 90  1  0
 26 91  1  0
 29 92  1  6
 30 93  1  0
 30 94  1  0
 30 95  1  0
 31 96  1  0
 34 97  1  1
 35 98  1  0
 35 99  1  0
 35100  1  0
 36101  1  0
 39102  1  6
 40103  1  0
 40104  1  0
 40105  1  0
 41106  1  0
 44107  1  1
 45108  1  0
 45109  1  0
 45110  1  0
 47111  1  0
 47112  1  0
 47113  1  0
 52114  1  0
 52115  1  0
 53116  1  0
 53117  1  0
 54118  1  0
 54119  1  0
 55120  1  6
 59121  1  0
 59122  1  0
 59123  1  0
 60124  1  0
 60125  1  0
 60126  1  0
M  END
$$$$
[H]N(C(=O)[C@]([H])(C(=O)C([H])([H])[H])C([H])([H])[H])[C@]([H])(C(=O)N([H])[C@]([H])(C(=O)N([H])[C@]([H])(C(=O)N([H])[C@]([H])(C(=O)N([H])[C@]([H])(C(=O)N([H])[C@]([H])(C(=O)N([H])[C@]([H])(C(=O)N([H])[C@]([H])(C(=O)N1C([H])([H])C([H])([H])C([H])([H])[C@@]1([H])C(=O)N1C(=O)C([H])([H])C([H])([H])C1([H])[H])C([H])([H])C([H])(C([H])([H])[H])C([H])([H])[H])C([H])([H])[H])C([H])([H])[H])C([H])([H])[H])C([H])([H])[H])C([H])([H])[H])C([H])([H])[H])C([H])([H])[H]
     RDKit          3D

129130  0  0  0  0  0  0  0  0999 V2000
  -10.2614   -4.5208   -0.7535 C   0  0  0  0  0  0  0  0  0  0  0  0
  -10.3173   -4.0873    0.7075 C   0  0  0  0  0  0  0  0  0  0  0  0
   -9.9234   -5.3799    1.4791 C   0  0  0  0  0  0  0  0  0  0  0  0
   -9.3315   -3.0413    1.0311 C   0  0  0  0  0  0  0  0  0  0  0  0
   -9.3093   -1.7552    0.3804 C   0  0  2  0  0  0  0  0  0  0  0  0
   -8.0709   -1.0623    0.9341 N   0  0  0  0  0  0  0  0  0  0  0  0
   -7.0789   -0.6028    0.0503 C   0  0  0  0  0  0  0  0  0  0  0  0
   -7.1355   -0.7145   -1.1908 O   0  0  0  0  0  0  0  0  0  0  0  0
   -5.8851    0.0575    0.6611 C   0  0  2  0  0  0  0  0  0  0  0  0
   -6.3426    1.1213    1.6111 C   0  0  0  0  0  0  0  0  0  0  0  0
   -4.9636    0.4766   -0.3459 N   0  0  0  0  0  0  0  0  0  0  0  0
   -3.7227   -0.2017   -0.5636 C   0  0  0  0  0  0  0  0  0  0  0  0
   -3.4561   -1.1999    0.1767 O   0  0  0  0  0  0  0  0  0  0  0  0
   -2.7600    0.1996   -1.5925 C   0  0  2  0  0  0  0  0  0  0  0  0
   -3.3505    0.3396   -2.9616 C   0  0  0  0  0  0  0  0  0  0  0  0
   -1.6523   -0.7503   -1.5587 N   0  0  0  0  0  0  0  0  0  0  0  0
   -0.3585   -0.3197   -1.2693 C   0  0  0  0  0  0  0  0  0  0  0  0
   -0.1791    0.9225   -1.0494 O   0  0  0  0  0  0  0  0  0  0  0  0
    0.7663   -1.2656   -1.2159 C   0  0  2  0  0  0  0  0  0  0  0  0
    0.5217   -2.2358   -0.0617 C   0  0  0  0  0  0  0  0  0  0  0  0
    1.9659   -0.5298   -0.9108 N   0  0  0  0  0  0  0  0  0  0  0  0
    3.2022   -0.9527   -1.5145 C   0  0  0  0  0  0  0  0  0  0  0  0
    3.2076   -1.9457   -2.2597 O   0  0  0  0  0  0  0  0  0  0  0  0
    4.4436   -0.2131   -1.2469 C   0  0  2  0  0  0  0  0  0  0  0  0
    4.5731    0.9463   -2.2717 C   0  0  0  0  0  0  0  0  0  0  0  0
    5.6102   -1.0784   -1.5062 N   0  0  0  0  0  0  0  0  0  0  0  0
    6.6623   -0.9922   -0.5813 C   0  0  0  0  0  0  0  0  0  0  0  0
    6.5695   -0.2036    0.4157 O   0  0  0  0  0  0  0  0  0  0  0  0
    7.9001   -1.8097   -0.7498 C   0  0  2  0  0  0  0  0  0  0  0  0
    7.5045   -3.2464   -0.5493 C   0  0  0  0  0  0  0  0  0  0  0  0
    8.8145   -1.3461    0.2868 N   0  0  0  0  0  0  0  0  0  0  0  0
    9.9611   -0.5940    0.0156 C   0  0  0  0  0  0  0  0  0  0  0  0
   10.2158   -0.2960   -1.1713 O   0  0  0  0  0  0  0  0  0  0  0  0
   10.8795   -0.1389    1.1133 C   0  0  2  0  0  0  0  0  0  0  0  0
   10.1481    0.1251    2.3954 C   0  0  0  0  0  0  0  0  0  0  0  0
   11.6063    1.0303    0.6306 N   0  0  0  0  0  0  0  0  0  0  0  0
   12.9249    0.9877    0.1507 C   0  0  0  0  0  0  0  0  0  0  0  0
   13.5857   -0.0529    0.1081 O   0  0  0  0  0  0  0  0  0  0  0  0
   13.5396    2.2800   -0.3379 C   0  0  2  0  0  0  0  0  0  0  0  0
   12.6130    2.7626   -1.4521 C   0  0  0  0  0  0  0  0  0  0  0  0
   14.8468    1.9949   -0.8586 N   0  0  0  0  0  0  0  0  0  0  0  0
   16.0554    2.5403   -0.3451 C   0  0  0  0  0  0  0  0  0  0  0  0
   15.9953    3.3228    0.6306 O   0  0  0  0  0  0  0  0  0  0  0  0
   17.3679    2.1584   -0.9963 C   0  0  1  0  0  0  0  0  0  0  0  0
   18.5182    2.7411   -0.2121 C   0  0  0  0  0  0  0  0  0  0  0  0
   17.4901    0.7058   -1.1337 C   0  0  0  0  0  0  0  0  0  0  0  0
   17.4332   -0.2280    0.0259 C   0  0  0  0  0  0  0  0  0  0  0  0
   17.6466    0.2068   -2.2427 O   0  0  0  0  0  0  0  0  0  0  0  0
  -10.2958   -0.7224    0.4027 C   0  0  0  0  0  0  0  0  0  0  0  0
   -9.7842    0.4151   -0.1267 O   0  0  0  0  0  0  0  0  0  0  0  0
  -11.5997   -0.5438    0.8025 N   0  0  0  0  0  0  0  0  0  0  0  0
  -12.6517   -1.2501    1.4649 C   0  0  0  0  0  0  0  0  0  0  0  0
  -13.7422   -1.1584    0.3828 C   0  0  0  0  0  0  0  0  0  0  0  0
  -13.6928    0.3708    0.1740 C   0  0  0  0  0  0  0  0  0  0  0  0
  -12.2933    0.7676    0.4949 C   0  0  1  0  0  0  0  0  0  0  0  0
  -12.1355    1.6530    1.6483 C   0  0  0  0  0  0  0  0  0  0  0  0
  -11.5995    1.2238    2.7306 O   0  0  0  0  0  0  0  0  0  0  0  0
  -12.5662    3.0020    1.6000 N   0  0  0  0  0  0  0  0  0  0  0  0
  -12.4515    3.9821    2.6941 C   0  0  0  0  0  0  0  0  0  0  0  0
  -12.8234    5.3082    2.0794 C   0  0  0  0  0  0  0  0  0  0  0  0
  -13.8776    4.8577    1.0642 C   0  0  0  0  0  0  0  0  0  0  0  0
  -13.1620    3.6609    0.4953 C   0  0  0  0  0  0  0  0  0  0  0  0
  -13.1243    3.3489   -0.7024 O   0  0  0  0  0  0  0  0  0  0  0  0
   -9.3694   -5.1247   -0.9646 H   0  0  0  0  0  0  0  0  0  0  0  0
  -11.1326   -5.2103   -0.8960 H   0  0  0  0  0  0  0  0  0  0  0  0
  -10.4096   -3.6822   -1.4564 H   0  0  0  0  0  0  0  0  0  0  0  0
  -11.3505   -3.9341    0.9473 H   0  0  0  0  0  0  0  0  0  0  0  0
  -10.7282   -6.1007    1.3680 H   0  0  0  0  0  0  0  0  0  0  0  0
   -9.7352   -5.1123    2.5254 H   0  0  0  0  0  0  0  0  0  0  0  0
   -9.0255   -5.7649    0.9626 H   0  0  0  0  0  0  0  0  0  0  0  0
   -9.3197   -2.9667    2.1678 H   0  0  0  0  0  0  0  0  0  0  0  0
   -8.2939   -3.5170    0.8574 H   0  0  0  0  0  0  0  0  0  0  0  0
   -8.9832   -1.9041   -0.7052 H   0  0  0  0  0  0  0  0  0  0  0  0
   -7.9714   -0.9379    1.9540 H   0  0  0  0  0  0  0  0  0  0  0  0
   -5.3658   -0.7528    1.2518 H   0  0  0  0  0  0  0  0  0  0  0  0
   -7.3161    1.5577    1.3112 H   0  0  0  0  0  0  0  0  0  0  0  0
   -5.5779    1.9152    1.7784 H   0  0  0  0  0  0  0  0  0  0  0  0
   -6.5168    0.6805    2.6410 H   0  0  0  0  0  0  0  0  0  0  0  0
   -5.1818    1.2893   -0.9558 H   0  0  0  0  0  0  0  0  0  0  0  0
   -2.3508    1.2220   -1.3329 H   0  0  0  0  0  0  0  0  0  0  0  0
   -4.4655    0.2716   -2.8480 H   0  0  0  0  0  0  0  0  0  0  0  0
   -3.0366   -0.4460   -3.6753 H   0  0  0  0  0  0  0  0  0  0  0  0
   -3.1124    1.3358   -3.4272 H   0  0  0  0  0  0  0  0  0  0  0  0
   -1.8362   -1.7631   -1.7550 H   0  0  0  0  0  0  0  0  0  0  0  0
    0.8824   -1.8966   -2.1265 H   0  0  0  0  0  0  0  0  0  0  0  0
    0.8425   -3.2639   -0.3459 H   0  0  0  0  0  0  0  0  0  0  0  0
    1.1201   -1.9381    0.8015 H   0  0  0  0  0  0  0  0  0  0  0  0
   -0.5386   -2.2759    0.1747 H   0  0  0  0  0  0  0  0  0  0  0  0
    1.9147    0.2817   -0.2600 H   0  0  0  0  0  0  0  0  0  0  0  0
    4.4568    0.2466   -0.2621 H   0  0  0  0  0  0  0  0  0  0  0  0
    5.0261    1.7868   -1.7527 H   0  0  0  0  0  0  0  0  0  0  0  0
    5.2686    0.6543   -3.0951 H   0  0  0  0  0  0  0  0  0  0  0  0
    3.5619    1.1947   -2.6391 H   0  0  0  0  0  0  0  0  0  0  0  0
    5.5568   -1.6728   -2.3438 H   0  0  0  0  0  0  0  0  0  0  0  0
    8.3121   -1.6670   -1.7719 H   0  0  0  0  0  0  0  0  0  0  0  0
    6.8966   -3.3312    0.4040 H   0  0  0  0  0  0  0  0  0  0  0  0
    8.4007   -3.8902   -0.4876 H   0  0  0  0  0  0  0  0  0  0  0  0
    6.8036   -3.5399   -1.3448 H   0  0  0  0  0  0  0  0  0  0  0  0
    8.5676   -1.6122    1.2573 H   0  0  0  0  0  0  0  0  0  0  0  0
   11.6220   -0.9499    1.2814 H   0  0  0  0  0  0  0  0  0  0  0  0
   10.7924    0.4894    3.2014 H   0  0  0  0  0  0  0  0  0  0  0  0
    9.6313   -0.7846    2.7754 H   0  0  0  0  0  0  0  0  0  0  0  0
    9.4203    0.9590    2.1960 H   0  0  0  0  0  0  0  0  0  0  0  0
   11.0760    1.9493    0.6628 H   0  0  0  0  0  0  0  0  0  0  0  0
   13.5368    3.0013    0.4925 H   0  0  0  0  0  0  0  0  0  0  0  0
   11.7627    3.2716   -0.9277 H   0  0  0  0  0  0  0  0  0  0  0  0
   12.1897    1.8621   -1.9403 H   0  0  0  0  0  0  0  0  0  0  0  0
   13.1452    3.4180   -2.1504 H   0  0  0  0  0  0  0  0  0  0  0  0
   14.8892    1.3237   -1.6871 H   0  0  0  0  0  0  0  0  0  0  0  0
   17.3341    2.6353   -2.0202 H   0  0  0  0  0  0  0  0  0  0  0  0
   18.2968    2.6852    0.8911 H   0  0  0  0  0  0  0  0  0  0  0  0
   19.4645    2.2241   -0.4344 H   0  0  0  0  0  0  0  0  0  0  0  0
   18.5775    3.8246   -0.4371 H   0  0  0  0  0  0  0  0  0  0  0  0
   17.2519    0.3182    0.9798 H   0  0  0  0  0  0  0  0  0  0  0  0
   16.5586   -0.9193   -0.1051 H   0  0  0  0  0  0  0  0  0  0  0  0
   18.3637   -0.8221    0.1136 H   0  0  0  0  0  0  0  0  0  0  0  0
  -12.4826   -2.2230    1.8533 H   0  0  0  0  0  0  0  0  0  0  0  0
  -13.0932   -0.6458    2.3120 H   0  0  0  0  0  0  0  0  0  0  0  0
  -13.4263   -1.6073   -0.5644 H   0  0  0  0  0  0  0  0  0  0  0  0
  -14.7262   -1.4656    0.7583 H   0  0  0  0  0  0  0  0  0  0  0  0
  -14.3783    0.8244    0.9309 H   0  0  0  0  0  0  0  0  0  0  0  0
  -14.0294    0.6170   -0.8499 H   0  0  0  0  0  0  0  0  0  0  0  0
  -11.7928    1.1704   -0.4057 H   0  0  0  0  0  0  0  0  0  0  0  0
  -13.2026    3.7307    3.4610 H   0  0  0  0  0  0  0  0  0  0  0  0
  -11.4135    4.0378    3.0515 H   0  0  0  0  0  0  0  0  0  0  0  0
  -13.2070    6.0224    2.8105 H   0  0  0  0  0  0  0  0  0  0  0  0
  -11.9920    5.7583    1.4733 H   0  0  0  0  0  0  0  0  0  0  0  0
  -14.1027    5.6059    0.3098 H   0  0  0  0  0  0  0  0  0  0  0  0
  -14.7297    4.4874    1.6543 H   0  0  0  0  0  0  0  0  0  0  0  0
  1  2  1  0
  2  3  1  0
  2  4  1  0
  4  5  1  0
  5  6  1  0
  6  7  1  0
  7  8  2  0
  7  9  1  0
  9 10  1  0
  9 11  1  0
 11 12  1  0
 12 13  2  0
 12 14  1  0
 14 15  1  0
 14 16  1  0
 16 17  1  0
 17 18  2  0
 17 19  1  0
 19 20  1  0
 19 21  1  0
 21 22  1  0
 22 23  2  0
 22 24  1  0
 24 25  1  0
 24 26  1  0
 26 27  1  0
 27 28  2  0
 27 29  1  0
 29 30  1  0
 29 31  1  0
 31 32  1  0
 32 33  2  0
 32 34  1  0
 34 35  1  0
 34 36  1  0
 36 37  1  0
 37 38  2  0
 37 39  1  0
 39 40  1  0
 39 41  1  0
 41 42  1  0
 42 43  2  0
 42 44  1  0
 44 45  1  0
 44 46  1  0
 46 47  1  0
 46 48  2  0
  5 49  1  0
 49 50  2  0
 49 51  1  0
 51 52  1  0
 52 53  1  0
 53 54  1  0
 54 55  1  0
 55 56  1  0
 56 57  2  0
 56 58  1  0
 58 59  1  0
 59 60  1  0
 60 61  1  0
 61 62  1  0
 62 63  2  0
 55 51  1  0
 62 58  1  0
  1 64  1  0
  1 65  1  0
  1 66  1  0
  2 67  1  0
  3 68  1  0
  3 69  1  0
  3 70  1  0
  4 71  1  0
  4 72  1  0
  5 73  1  6
  6 74  1  0
  9 75  1  1
 10 76  1  0
 10 77  1  0
 10 78  1  0
 11 79  1  0
 14 80  1  1
 15 81  1  0
 15 82  1  0
 15 83  1  0
 16 84  1  0
 19 85  1  6
 20 86  1  0
 20 87  1  0
 20 88  1  0
 21 89  1  0
 24 90  1  1
 25 91  1  0
 25 92  1  0
 25 93  1  0
 26 94  1  0
 29 95  1  6
 30 96  1  0
 30 97  1  0
 30 98  1  0
 31 99  1  0
 34100  1  1
 35101  1  0
 35102  1  0
 35103  1  0
 36104  1  0
 39105  1  1
 40106  1  0
 40107  1  0
 40108  1  0
 41109  1  0
 44110  1  6
 45111  1  0
 45112  1  0
 45113  1  0
 47114  1  0
 47115  1  0
 47116  1  0
 52117  1  0
 52118  1  0
 53119  1  0
 53120  1  0
 54121  1  0
 54122  1  0
 55123  1  6
 59124  1  0
 59125  1  0
 60126  1  0
 60127  1  0
 61128  1  0
 61129  1  0
M  END
$$$$
[H]N(C(=O)[C@@]([H])(N([H])C(=O)[C@@]([H])(N([H])C(=O)[C@@]([H])(C(=O)C([H])([H])[H])C([H])([H])[H])C([H])([H])[H])C([H])([H])[H])[C@]([H])(C(=O)N([H])[C@]([H])(C(=O)N([H])[C@]([H])(C(=O)N([H])[C@]([H])(C(=O)N([H])[C@]([H])(C(=O)N1C([H])([H])C([H])([H])C([H])([H])[C@]1([H])C(=O)N1C([H])([H])C([H])([H])C([H])([H])C1([H])[H])C([H])([H])C([H])(C([H])([H])[H])C([H])([H])[H])C([H])([H])[H])C([H])([H])[H])C([H])([H])[H])C([H])([H])[H]
     RDKit          3D

120121  0  0  0  0  0  0  0  0999 V2000
   -9.9952   -3.6287   -0.2013 C   0  0  0  0  0  0  0  0  0  0  0  0
   -8.6192   -2.9436   -0.4168 C   0  0  0  0  0  0  0  0  0  0  0  0
   -7.6313   -4.0297   -0.0089 C   0  0  0  0  0  0  0  0  0  0  0  0
   -8.6337   -1.7900    0.5703 C   0  0  0  0  0  0  0  0  0  0  0  0
   -7.4529   -0.9091    0.5631 C   0  0  2  0  0  0  0  0  0  0  0  0
   -6.2066   -1.6395    0.8480 N   0  0  0  0  0  0  0  0  0  0  0  0
   -5.0203   -1.2992    0.1684 C   0  0  0  0  0  0  0  0  0  0  0  0
   -5.0381   -0.3718   -0.6729 O   0  0  0  0  0  0  0  0  0  0  0  0
   -3.7228   -1.9862    0.4007 C   0  0  2  0  0  0  0  0  0  0  0  0
   -3.7200   -2.5075    1.8168 C   0  0  0  0  0  0  0  0  0  0  0  0
   -2.6023   -1.1268    0.1762 N   0  0  0  0  0  0  0  0  0  0  0  0
   -1.5201   -1.2781   -0.6897 C   0  0  0  0  0  0  0  0  0  0  0  0
   -1.4119   -2.2709   -1.4289 O   0  0  0  0  0  0  0  0  0  0  0  0
   -0.4746   -0.2356   -0.7313 C   0  0  2  0  0  0  0  0  0  0  0  0
   -1.0159    1.1502   -0.9809 C   0  0  0  0  0  0  0  0  0  0  0  0
    0.5407   -0.5953   -1.6920 N   0  0  0  0  0  0  0  0  0  0  0  0
    1.8467   -0.9822   -1.2888 C   0  0  0  0  0  0  0  0  0  0  0  0
    2.2124   -1.0607   -0.1092 O   0  0  0  0  0  0  0  0  0  0  0  0
    2.8411   -1.3077   -2.3703 C   0  0  2  0  0  0  0  0  0  0  0  0
    2.3314   -2.3210   -3.3490 C   0  0  0  0  0  0  0  0  0  0  0  0
    4.0703   -1.6628   -1.7264 N   0  0  0  0  0  0  0  0  0  0  0  0
    5.0016   -0.6126   -1.4091 C   0  0  0  0  0  0  0  0  0  0  0  0
    4.7473    0.5851   -1.6778 O   0  0  0  0  0  0  0  0  0  0  0  0
    6.2846   -0.9569   -0.7451 C   0  0  2  0  0  0  0  0  0  0  0  0
    6.1271   -2.0772    0.2524 C   0  0  0  0  0  0  0  0  0  0  0  0
    6.8406    0.2278   -0.1748 N   0  0  0  0  0  0  0  0  0  0  0  0
    8.0244    0.8990   -0.4964 C   0  0  0  0  0  0  0  0  0  0  0  0
    8.8021    0.5449   -1.3929 O   0  0  0  0  0  0  0  0  0  0  0  0
    8.3571    2.1292    0.3219 C   0  0  2  0  0  0  0  0  0  0  0  0
    7.2659    3.1145    0.0842 C   0  0  0  0  0  0  0  0  0  0  0  0
    9.6275    2.6258   -0.1566 N   0  0  0  0  0  0  0  0  0  0  0  0
   10.8607    2.1583    0.3545 C   0  0  0  0  0  0  0  0  0  0  0  0
   10.8251    1.2695    1.2443 O   0  0  0  0  0  0  0  0  0  0  0  0
   12.1260    2.7166   -0.1637 C   0  0  2  0  0  0  0  0  0  0  0  0
   12.0084    3.2771   -1.5496 C   0  0  0  0  0  0  0  0  0  0  0  0
   13.1259    1.6668   -0.1728 N   0  0  0  0  0  0  0  0  0  0  0  0
   14.2140    1.7339    0.7209 C   0  0  0  0  0  0  0  0  0  0  0  0
   14.3075    2.6913    1.5180 O   0  0  0  0  0  0  0  0  0  0  0  0
   15.2344    0.6439    0.6821 C   0  0  2  0  0  0  0  0  0  0  0  0
   15.9834    0.7557   -0.6370 C   0  0  0  0  0  0  0  0  0  0  0  0
   14.6167   -0.6990    0.8258 C   0  0  0  0  0  0  0  0  0  0  0  0
   15.4376   -1.9414    0.8038 C   0  0  0  0  0  0  0  0  0  0  0  0
   13.4256   -0.8298    0.9666 O   0  0  0  0  0  0  0  0  0  0  0  0
   -7.5567    0.0912    1.6724 C   0  0  0  0  0  0  0  0  0  0  0  0
   -6.6724   -0.0106    2.5941 O   0  0  0  0  0  0  0  0  0  0  0  0
   -8.5285    1.0831    1.7255 N   0  0  0  0  0  0  0  0  0  0  0  0
   -8.5597    2.0893    2.7891 C   0  0  0  0  0  0  0  0  0  0  0  0
   -9.0058    3.3443    2.1147 C   0  0  0  0  0  0  0  0  0  0  0  0
   -9.4826    2.9496    0.7483 C   0  0  0  0  0  0  0  0  0  0  0  0
   -9.6223    1.4090    0.8725 C   0  0  2  0  0  0  0  0  0  0  0  0
  -10.9546    1.1651    1.4709 C   0  0  0  0  0  0  0  0  0  0  0  0
  -11.1296    0.9652    2.6945 O   0  0  0  0  0  0  0  0  0  0  0  0
  -12.1019    1.1520    0.6174 N   0  0  0  0  0  0  0  0  0  0  0  0
  -13.4768    0.9511    1.0965 C   0  0  0  0  0  0  0  0  0  0  0  0
  -14.2001    0.5337   -0.1600 C   0  0  0  0  0  0  0  0  0  0  0  0
  -13.4859    1.2732   -1.2626 C   0  0  0  0  0  0  0  0  0  0  0  0
  -12.0656    1.3037   -0.8084 C   0  0  0  0  0  0  0  0  0  0  0  0
  -10.1893   -4.3307   -1.0267 H   0  0  0  0  0  0  0  0  0  0  0  0
  -10.7628   -2.8397   -0.2154 H   0  0  0  0  0  0  0  0  0  0  0  0
   -9.9945   -4.1125    0.7968 H   0  0  0  0  0  0  0  0  0  0  0  0
   -8.4451   -2.6630   -1.4427 H   0  0  0  0  0  0  0  0  0  0  0  0
   -6.6194   -3.8819   -0.3552 H   0  0  0  0  0  0  0  0  0  0  0  0
   -8.0560   -4.9987   -0.4212 H   0  0  0  0  0  0  0  0  0  0  0  0
   -7.6939   -4.1673    1.1030 H   0  0  0  0  0  0  0  0  0  0  0  0
   -8.6563   -2.2958    1.5868 H   0  0  0  0  0  0  0  0  0  0  0  0
   -9.6065   -1.2649    0.5235 H   0  0  0  0  0  0  0  0  0  0  0  0
   -7.3750   -0.3652   -0.4135 H   0  0  0  0  0  0  0  0  0  0  0  0
   -6.1904   -2.3991    1.5466 H   0  0  0  0  0  0  0  0  0  0  0  0
   -3.6301   -2.8832   -0.2590 H   0  0  0  0  0  0  0  0  0  0  0  0
   -4.0471   -1.7590    2.5658 H   0  0  0  0  0  0  0  0  0  0  0  0
   -4.4079   -3.4004    1.8265 H   0  0  0  0  0  0  0  0  0  0  0  0
   -2.7296   -2.9377    2.1078 H   0  0  0  0  0  0  0  0  0  0  0  0
   -2.6070   -0.2385    0.7663 H   0  0  0  0  0  0  0  0  0  0  0  0
    0.0081   -0.2031    0.2882 H   0  0  0  0  0  0  0  0  0  0  0  0
   -1.8283    1.3509   -0.2859 H   0  0  0  0  0  0  0  0  0  0  0  0
   -0.1816    1.8655   -0.7434 H   0  0  0  0  0  0  0  0  0  0  0  0
   -1.2450    1.3223   -2.0547 H   0  0  0  0  0  0  0  0  0  0  0  0
    0.2696   -0.5592   -2.7052 H   0  0  0  0  0  0  0  0  0  0  0  0
    2.9377   -0.3094   -2.9075 H   0  0  0  0  0  0  0  0  0  0  0  0
    2.9214   -2.2498   -4.3143 H   0  0  0  0  0  0  0  0  0  0  0  0
    1.2931   -2.1845   -3.6403 H   0  0  0  0  0  0  0  0  0  0  0  0
    2.4262   -3.3636   -2.9782 H   0  0  0  0  0  0  0  0  0  0  0  0
    4.2760   -2.6556   -1.4948 H   0  0  0  0  0  0  0  0  0  0  0  0
    6.9491   -1.3686   -1.5579 H   0  0  0  0  0  0  0  0  0  0  0  0
    5.3627   -1.8903    1.0212 H   0  0  0  0  0  0  0  0  0  0  0  0
    7.1193   -2.1895    0.7692 H   0  0  0  0  0  0  0  0  0  0  0  0
    5.9751   -3.0364   -0.2772 H   0  0  0  0  0  0  0  0  0  0  0  0
    6.2427    0.6482    0.6175 H   0  0  0  0  0  0  0  0  0  0  0  0
    8.4417    1.7687    1.3822 H   0  0  0  0  0  0  0  0  0  0  0  0
    7.0448    3.2576   -0.9952 H   0  0  0  0  0  0  0  0  0  0  0  0
    7.4523    4.1196    0.4967 H   0  0  0  0  0  0  0  0  0  0  0  0
    6.2895    2.7811    0.5470 H   0  0  0  0  0  0  0  0  0  0  0  0
    9.6281    3.3551   -0.8980 H   0  0  0  0  0  0  0  0  0  0  0  0
   12.4174    3.5114    0.5745 H   0  0  0  0  0  0  0  0  0  0  0  0
   11.5274    4.2988   -1.4958 H   0  0  0  0  0  0  0  0  0  0  0  0
   11.3579    2.6014   -2.1421 H   0  0  0  0  0  0  0  0  0  0  0  0
   13.0286    3.3259   -1.9713 H   0  0  0  0  0  0  0  0  0  0  0  0
   13.0416    0.8551   -0.8478 H   0  0  0  0  0  0  0  0  0  0  0  0
   15.9486    0.8279    1.4912 H   0  0  0  0  0  0  0  0  0  0  0  0
   16.7788   -0.0074   -0.6428 H   0  0  0  0  0  0  0  0  0  0  0  0
   16.5033    1.7439   -0.6229 H   0  0  0  0  0  0  0  0  0  0  0  0
   15.2919    0.7229   -1.4811 H   0  0  0  0  0  0  0  0  0  0  0  0
   15.9417   -2.1455    1.7724 H   0  0  0  0  0  0  0  0  0  0  0  0
   16.2440   -1.8389    0.0457 H   0  0  0  0  0  0  0  0  0  0  0  0
   14.8138   -2.8036    0.4539 H   0  0  0  0  0  0  0  0  0  0  0  0
   -9.1460    1.8095    3.6501 H   0  0  0  0  0  0  0  0  0  0  0  0
   -7.4906    2.2410    3.1739 H   0  0  0  0  0  0  0  0  0  0  0  0
   -8.1557    4.0627    2.0386 H   0  0  0  0  0  0  0  0  0  0  0  0
   -9.8109    3.8540    2.7040 H   0  0  0  0  0  0  0  0  0  0  0  0
  -10.4753    3.3800    0.5147 H   0  0  0  0  0  0  0  0  0  0  0  0
   -8.7308    3.2210   -0.0042 H   0  0  0  0  0  0  0  0  0  0  0  0
   -9.5024    1.0247   -0.1449 H   0  0  0  0  0  0  0  0  0  0  0  0
  -13.8987    1.8520    1.5589 H   0  0  0  0  0  0  0  0  0  0  0  0
  -13.4639    0.1354    1.8520 H   0  0  0  0  0  0  0  0  0  0  0  0
  -15.2855    0.7758   -0.1193 H   0  0  0  0  0  0  0  0  0  0  0  0
  -14.0428   -0.5543   -0.3227 H   0  0  0  0  0  0  0  0  0  0  0  0
  -13.8628    2.3232   -1.3460 H   0  0  0  0  0  0  0  0  0  0  0  0
  -13.5417    0.7623   -2.2399 H   0  0  0  0  0  0  0  0  0  0  0  0
  -11.5704    2.2233   -1.1789 H   0  0  0  0  0  0  0  0  0  0  0  0
  -11.4677    0.4503   -1.2145 H   0  0  0  0  0  0  0  0  0  0  0  0
  1  2  1  0
  2  3  1  0
  2  4  1  0
  4  5  1  0
  5  6  1  0
  6  7  1  0
  7  8  2  0
  7  9  1  0
  9 10  1  0
  9 11  1  0
 11 12  1  0
 12 13  2  0
 12 14  1  0
 14 15  1  0
 14 16  1  0
 16 17  1  0
 17 18  2  0
 17 19  1  0
 19 20  1  0
 19 21  1  0
 21 22  1  0
 22 23  2  0
 22 24  1  0
 24 25  1  0
 24 26  1  0
 26 27  1  0
 27 28  2  0
 27 29  1  0
 29 30  1  0
 29 31  1  0
 31 32  1  0
 32 33  2  0
 32 34  1  0
 34 35  1  0
 34 36  1  0
 36 37  1  0
 37 38  2  0
 37 39  1  0
 39 40  1  0
 39 41  1  0
 41 42  1  0
 41 43  2  0
  5 44  1  0
 44 45  2  0
 44 46  1  0
 46 47  1  0
 47 48  1  0
 48 49  1  0
 49 50  1  0
 50 51  1  0
 51 52  2  0
 51 53  1  0
 53 54  1  0
 54 55  1  0
 55 56  1  0
 56 57  1  0
 50 46  1  0
 57 53  1  0
  1 58  1  0
  1 59  1  0
  1 60  1  0
  2 61  1  0
  3 62  1  0
  3 63  1  0
  3 64  1  0
  4 65  1  0
  4 66  1  0
  5 67  1  6
  6 68  1  0
  9 69  1  6
 10 70  1  0
 10 71  1  0
 10 72  1  0
 11 73  1  0
 14 74  1  1
 15 75  1  0
 15 76  1  0
 15 77  1  0
 16 78  1  0
 19 79  1  6
 20 80  1  0
 20 81  1  0
 20 82  1  0
 21 83  1  0
 24 84  1  6
 25 85  1  0
 25 86  1  0
 25 87  1  0
 26 88  1  0
 29 89  1  1
 30 90  1  0
 30 91  1  0
 30 92  1  0
 31 93  1  0
 34 94  1  1
 35 95  1  0
 35 96  1  0
 35 97  1  0
 36 98  1  0
 39 99  1  1
 40100  1  0
 40101  1  0
 40102  1  0
 42103  1  0
 42104  1  0
 42105  1  0
 47106  1  0
 47107  1  0
 48108  1  0
 48109  1  0
 49110  1  0
 49111  1  0
 50112  1  6
 54113  1  0
 54114  1  0
 55115  1  0
 55116  1  0
 56117  1  0
 56118  1  0
 57119  1  0
 57120  1  0
M  END
$$$$
[H]N(C(=O)[C@]([H])(C(=O)C([H])([H])[H])C([H])([H])[H])[C@]([H])(C(=O)N([H])[C@]([H])(C(=O)N([H])[C@]([H])(C(=O)N([H])[C@]([H])(C(=O)N([H])[C@]([H])(C(=O)N([H])[C@]([H])(C(=O)N([H])[C@]([H])(C(=O)N1C([H])([H])C([H])([H])C([H])([H])[C@@]1([H])C(=O)N1C([H])([H])C([H])([H])C([H])([H])C1([H])[H])C([H])([H])C([H])(C([H])([H])[H])C([H])([H])[H])C([H])([H])[H])C([H])([H])[H])C([H])([H])[H])C([H])([H])[H])C([H])([H])[H])C([H])([H])[H]
     RDKit          3D

120121  0  0  0  0  0  0  0  0999 V2000
   -6.5719    0.5473    3.9239 C   0  0  0  0  0  0  0  0  0  0  0  0
   -7.8657   -0.1673    3.9259 C   0  0  0  0  0  0  0  0  0  0  0  0
   -8.5110   -0.2876    5.2824 C   0  0  0  0  0  0  0  0  0  0  0  0
   -8.8764    0.2880    2.8722 C   0  0  0  0  0  0  0  0  0  0  0  0
   -8.4750    0.1106    1.4849 C   0  0  2  0  0  0  0  0  0  0  0  0
   -7.2654    0.7768    1.0373 N   0  0  0  0  0  0  0  0  0  0  0  0
   -6.0820    0.1617    0.6067 C   0  0  0  0  0  0  0  0  0  0  0  0
   -6.0771   -1.1104    0.6169 O   0  0  0  0  0  0  0  0  0  0  0  0
   -4.8756    0.8647    0.1597 C   0  0  2  0  0  0  0  0  0  0  0  0
   -5.1707    1.3796   -1.2801 C   0  0  0  0  0  0  0  0  0  0  0  0
   -3.8008   -0.0877   -0.0363 N   0  0  0  0  0  0  0  0  0  0  0  0
   -2.4920    0.2891    0.4134 C   0  0  0  0  0  0  0  0  0  0  0  0
   -2.2939    1.4183    0.9440 O   0  0  0  0  0  0  0  0  0  0  0  0
   -1.3495   -0.6322    0.2697 C   0  0  2  0  0  0  0  0  0  0  0  0
   -1.6358   -1.8295    1.2083 C   0  0  0  0  0  0  0  0  0  0  0  0
   -0.1573    0.0409    0.7532 N   0  0  0  0  0  0  0  0  0  0  0  0
    1.0731   -0.1526    0.0536 C   0  0  0  0  0  0  0  0  0  0  0  0
    1.1184   -0.8936   -0.9396 O   0  0  0  0  0  0  0  0  0  0  0  0
    2.2783    0.5434    0.5322 C   0  0  2  0  0  0  0  0  0  0  0  0
    2.0323    2.0431    0.2531 C   0  0  0  0  0  0  0  0  0  0  0  0
    3.4118    0.1040   -0.2897 N   0  0  0  0  0  0  0  0  0  0  0  0
    4.6968   -0.0469    0.2868 C   0  0  0  0  0  0  0  0  0  0  0  0
    4.8369    0.2174    1.5070 O   0  0  0  0  0  0  0  0  0  0  0  0
    5.8231   -0.5055   -0.5520 C   0  0  2  0  0  0  0  0  0  0  0  0
    5.5094   -1.9312   -1.0524 C   0  0  0  0  0  0  0  0  0  0  0  0
    7.0586   -0.5412    0.2096 N   0  0  0  0  0  0  0  0  0  0  0  0
    8.2808   -0.1127   -0.3500 C   0  0  0  0  0  0  0  0  0  0  0  0
    8.3830    0.3099   -1.5266 O   0  0  0  0  0  0  0  0  0  0  0  0
    9.5254   -0.1485    0.4645 C   0  0  2  0  0  0  0  0  0  0  0  0
    9.4168    0.8490    1.6234 C   0  0  0  0  0  0  0  0  0  0  0  0
   10.7073    0.2694   -0.2661 N   0  0  0  0  0  0  0  0  0  0  0  0
   11.9459   -0.4064   -0.0442 C   0  0  0  0  0  0  0  0  0  0  0  0
   11.9595   -1.3502    0.7899 O   0  0  0  0  0  0  0  0  0  0  0  0
   13.1483    0.0052   -0.7749 C   0  0  2  0  0  0  0  0  0  0  0  0
   12.9119   -0.2283   -2.2615 C   0  0  0  0  0  0  0  0  0  0  0  0
   14.3128   -0.7456   -0.3321 N   0  0  0  0  0  0  0  0  0  0  0  0
   15.4636   -0.0636    0.1393 C   0  0  0  0  0  0  0  0  0  0  0  0
   15.4598    1.2061    0.1635 O   0  0  0  0  0  0  0  0  0  0  0  0
   16.6270   -0.8680    0.5885 C   0  0  1  0  0  0  0  0  0  0  0  0
   17.1114   -1.8201   -0.4906 C   0  0  0  0  0  0  0  0  0  0  0  0
   17.7231    0.0972    0.9124 C   0  0  0  0  0  0  0  0  0  0  0  0
   18.1998    0.9656   -0.1820 C   0  0  0  0  0  0  0  0  0  0  0  0
   18.1618    0.1246    2.0271 O   0  0  0  0  0  0  0  0  0  0  0  0
   -9.4893    0.1203    0.4131 C   0  0  0  0  0  0  0  0  0  0  0  0
   -8.9236   -0.2451   -0.7219 O   0  0  0  0  0  0  0  0  0  0  0  0
  -10.8472    0.4284    0.3727 N   0  0  0  0  0  0  0  0  0  0  0  0
  -11.6759    0.8479    1.4610 C   0  0  0  0  0  0  0  0  0  0  0  0
  -12.4047    2.0584    0.8105 C   0  0  0  0  0  0  0  0  0  0  0  0
  -12.7619    1.4487   -0.5096 C   0  0  0  0  0  0  0  0  0  0  0  0
  -11.7146    0.3455   -0.7765 C   0  0  1  0  0  0  0  0  0  0  0  0
  -11.1715    0.5629   -2.1028 C   0  0  0  0  0  0  0  0  0  0  0  0
  -10.1565    1.2188   -2.3529 O   0  0  0  0  0  0  0  0  0  0  0  0
  -11.8449   -0.0149   -3.2187 N   0  0  0  0  0  0  0  0  0  0  0  0
  -13.0619   -0.7914   -3.2013 C   0  0  0  0  0  0  0  0  0  0  0  0
  -12.7575   -1.9582   -4.1266 C   0  0  0  0  0  0  0  0  0  0  0  0
  -12.0122   -1.2574   -5.2525 C   0  0  0  0  0  0  0  0  0  0  0  0
  -11.4652    0.0223   -4.6309 C   0  0  0  0  0  0  0  0  0  0  0  0
   -6.2936    0.8326    5.0082 H   0  0  0  0  0  0  0  0  0  0  0  0
   -6.5135    1.4870    3.3780 H   0  0  0  0  0  0  0  0  0  0  0  0
   -5.6808   -0.0774    3.6389 H   0  0  0  0  0  0  0  0  0  0  0  0
   -7.6348   -1.2393    3.6181 H   0  0  0  0  0  0  0  0  0  0  0  0
   -9.2293    0.5402    5.3888 H   0  0  0  0  0  0  0  0  0  0  0  0
   -7.7755   -0.2122    6.0958 H   0  0  0  0  0  0  0  0  0  0  0  0
   -9.0893   -1.2455    5.3303 H   0  0  0  0  0  0  0  0  0  0  0  0
   -9.8043   -0.3321    3.0926 H   0  0  0  0  0  0  0  0  0  0  0  0
   -9.1230    1.3534    3.1335 H   0  0  0  0  0  0  0  0  0  0  0  0
   -8.1206   -1.0195    1.4449 H   0  0  0  0  0  0  0  0  0  0  0  0
   -7.3096    1.8307    1.0542 H   0  0  0  0  0  0  0  0  0  0  0  0
   -4.5966    1.7235    0.7788 H   0  0  0  0  0  0  0  0  0  0  0  0
   -5.7666    2.3073   -1.2271 H   0  0  0  0  0  0  0  0  0  0  0  0
   -4.2565    1.5182   -1.8556 H   0  0  0  0  0  0  0  0  0  0  0  0
   -5.8294    0.6013   -1.7360 H   0  0  0  0  0  0  0  0  0  0  0  0
   -3.9366   -1.0018   -0.4780 H   0  0  0  0  0  0  0  0  0  0  0  0
   -1.2154   -1.0608   -0.7361 H   0  0  0  0  0  0  0  0  0  0  0  0
   -0.7744   -2.5124    1.1072 H   0  0  0  0  0  0  0  0  0  0  0  0
   -1.7706   -1.4942    2.2437 H   0  0  0  0  0  0  0  0  0  0  0  0
   -2.5243   -2.3859    0.8559 H   0  0  0  0  0  0  0  0  0  0  0  0
   -0.2112    0.6440    1.5928 H   0  0  0  0  0  0  0  0  0  0  0  0
    2.4990    0.4104    1.5850 H   0  0  0  0  0  0  0  0  0  0  0  0
    2.5490    2.6644    1.0173 H   0  0  0  0  0  0  0  0  0  0  0  0
    2.3529    2.2538   -0.7785 H   0  0  0  0  0  0  0  0  0  0  0  0
    0.9470    2.2554    0.3304 H   0  0  0  0  0  0  0  0  0  0  0  0
    3.2461   -0.0890   -1.2871 H   0  0  0  0  0  0  0  0  0  0  0  0
    5.9866    0.0735   -1.4689 H   0  0  0  0  0  0  0  0  0  0  0  0
    6.4714   -2.3067   -1.4747 H   0  0  0  0  0  0  0  0  0  0  0  0
    5.1110   -2.5559   -0.2370 H   0  0  0  0  0  0  0  0  0  0  0  0
    4.7748   -1.8258   -1.8539 H   0  0  0  0  0  0  0  0  0  0  0  0
    7.0025   -0.8916    1.1865 H   0  0  0  0  0  0  0  0  0  0  0  0
    9.6590   -1.1225    0.9508 H   0  0  0  0  0  0  0  0  0  0  0  0
    8.9578    1.7856    1.3101 H   0  0  0  0  0  0  0  0  0  0  0  0
   10.4497    1.0830    1.9839 H   0  0  0  0  0  0  0  0  0  0  0  0
    8.8272    0.4002    2.4386 H   0  0  0  0  0  0  0  0  0  0  0  0
   10.6755    1.0402   -0.9413 H   0  0  0  0  0  0  0  0  0  0  0  0
   13.3325    1.0760   -0.6100 H   0  0  0  0  0  0  0  0  0  0  0  0
   12.0201    0.3271   -2.5976 H   0  0  0  0  0  0  0  0  0  0  0  0
   12.7556   -1.3223   -2.4559 H   0  0  0  0  0  0  0  0  0  0  0  0
   13.7941    0.1545   -2.8106 H   0  0  0  0  0  0  0  0  0  0  0  0
   14.2532   -1.7655   -0.3784 H   0  0  0  0  0  0  0  0  0  0  0  0
   16.3227   -1.4527    1.4602 H   0  0  0  0  0  0  0  0  0  0  0  0
   17.0796   -2.8634   -0.1008 H   0  0  0  0  0  0  0  0  0  0  0  0
   16.4452   -1.6931   -1.3831 H   0  0  0  0  0  0  0  0  0  0  0  0
   18.1611   -1.6043   -0.6976 H   0  0  0  0  0  0  0  0  0  0  0  0
   19.2262    0.6207   -0.4880 H   0  0  0  0  0  0  0  0  0  0  0  0
   17.5841    0.8813   -1.0931 H   0  0  0  0  0  0  0  0  0  0  0  0
   18.2041    2.0297    0.1394 H   0  0  0  0  0  0  0  0  0  0  0  0
  -12.4609    0.0518    1.5744 H   0  0  0  0  0  0  0  0  0  0  0  0
  -11.2439    1.1623    2.3874 H   0  0  0  0  0  0  0  0  0  0  0  0
  -13.2633    2.3813    1.4301 H   0  0  0  0  0  0  0  0  0  0  0  0
  -11.6061    2.8397    0.7439 H   0  0  0  0  0  0  0  0  0  0  0  0
  -12.6728    2.2381   -1.3004 H   0  0  0  0  0  0  0  0  0  0  0  0
  -13.7785    1.0224   -0.4565 H   0  0  0  0  0  0  0  0  0  0  0  0
  -12.2961   -0.6228   -0.6924 H   0  0  0  0  0  0  0  0  0  0  0  0
  -13.8219   -0.1785   -3.7787 H   0  0  0  0  0  0  0  0  0  0  0  0
  -13.4334   -1.0843   -2.2273 H   0  0  0  0  0  0  0  0  0  0  0  0
  -12.1019   -2.7101   -3.6792 H   0  0  0  0  0  0  0  0  0  0  0  0
  -13.6806   -2.4577   -4.4624 H   0  0  0  0  0  0  0  0  0  0  0  0
  -12.7014   -1.0369   -6.1126 H   0  0  0  0  0  0  0  0  0  0  0  0
  -11.2136   -1.8902   -5.6561 H   0  0  0  0  0  0  0  0  0  0  0  0
  -10.3826    0.1122   -4.7255 H   0  0  0  0  0  0  0  0  0  0  0  0
  -11.9655    0.8834   -5.1493 H   0  0  0  0  0  0  0  0  0  0  0  0
  1  2  1  0
  2  3  1  0
  2  4  1  0
  4  5  1  0
  5  6  1  0
  6  7  1  0
  7  8  2  0
  7  9  1  0
  9 10  1  0
  9 11  1  0
 11 12  1  0
 12 13  2  0
 12 14  1  0
 14 15  1  0
 14 16  1  0
 16 17  1  0
 17 18  2  0
 17 19  1  0
 19 20  1  0
 19 21  1  0
 21 22  1  0
 22 23  2  0
 22 24  1  0
 24 25  1  0
 24 26  1  0
 26 27  1  0
 27 28  2  0
 27 29  1  0
 29 30  1  0
 29 31  1  0
 31 32  1  0
 32 33  2  0
 32 34  1  0
 34 35  1  0
 34 36  1  0
 36 37  1  0
 37 38  2  0
 37 39  1  0
 39 40  1  0
 39 41  1  0
 41 42  1  0
 41 43  2  0
  5 44  1  0
 44 45  2  0
 44 46  1  0
 46 47  1  0
 47 48  1  0
 48 49  1  0
 49 50  1  0
 50 51  1  0
 51 52  2  0
 51 53  1  0
 53 54  1  0
 54 55  1  0
 55 56  1  0
 56 57  1  0
 50 46  1  0
 57 53  1  0
  1 58  1  0
  1 59  1  0
  1 60  1  0
  2 61  1  0
  3 62  1  0
  3 63  1  0
  3 64  1  0
  4 65  1  0
  4 66  1  0
  5 67  1  1
  6 68  1  0
  9 69  1  1
 10 70  1  0
 10 71  1  0
 10 72  1  0
 11 73  1  0
 14 74  1  6
 15 75  1  0
 15 76  1  0
 15 77  1  0
 16 78  1  0
 19 79  1  1
 20 80  1  0
 20 81  1  0
 20 82  1  0
 21 83  1  0
 24 84  1  6
 25 85  1  0
 25 86  1  0
 25 87  1  0
 26 88  1  0
 29 89  1  1
 30 90  1  0
 30 91  1  0
 30 92  1  0
 31 93  1  0
 34 94  1  6
 35 95  1  0
 35 96  1  0
 35 97  1  0
 36 98  1  0
 39 99  1  1
 40100  1  0
 40101  1  0
 40102  1  0
 42103  1  0
 42104  1  0
 42105  1  0
 47106  1  0
 47107  1  0
 48108  1  0
 48109  1  0
 49110  1  0
 49111  1  0
 50112  1  6
 54113  1  0
 54114  1  0
 55115  1  0
 55116  1  0
 56117  1  0
 56118  1  0
 57119  1  0
 57120  1  0
M  END
$$$$
[H]N(C(=O)[C@@]([H])(N([H])C(=O)[C@@]([H])(N([H])C(=O)[C@@]([H])(N([H])C(=O)[C@@]([H])(C(=O)C([H])([H])[H])C([H])([H])[H])C([H])([H])[H])C([H])([H])[H])C([H])([H])[H])[C@]([H])(C(=O)N([H])[C@]([H])(C(=O)N([H])[C@]([H])(C(=O)N([H])[C@]([H])(C(=O)N([H])[C@]([H])(C(=O)N1C([H])([H])C([H])([H])C([H])([H])[C@@]1([H])C(=O)N1C(=O)C([H])([H])C([H])([H])C1([H])[H])C([H])([H])C([H])(C([H])([H])[H])C([H])([H])[H])C([H])([H])[H])C([H])([H])[H])C([H])([H])[H])C([H])([H])[H]
     RDKit          3D

129130  0  0  0  0  0  0  0  0999 V2000
   11.5833   -4.2302    1.0467 C   0  0  0  0  0  0  0  0  0  0  0  0
   10.6799   -4.3842   -0.1365 C   0  0  0  0  0  0  0  0  0  0  0  0
   11.4313   -4.1908   -1.4432 C   0  0  0  0  0  0  0  0  0  0  0  0
    9.3623   -3.7484   -0.0618 C   0  0  0  0  0  0  0  0  0  0  0  0
    9.1839   -2.2900    0.1144 C   0  0  2  0  0  0  0  0  0  0  0  0
    7.6997   -2.1387    0.1283 N   0  0  0  0  0  0  0  0  0  0  0  0
    6.9869   -1.2732    0.9700 C   0  0  0  0  0  0  0  0  0  0  0  0
    7.6554   -0.5558    1.7805 O   0  0  0  0  0  0  0  0  0  0  0  0
    5.5404   -1.1598    0.9542 C   0  0  2  0  0  0  0  0  0  0  0  0
    5.1152   -0.9391   -0.5241 C   0  0  0  0  0  0  0  0  0  0  0  0
    4.9049   -0.1500    1.7208 N   0  0  0  0  0  0  0  0  0  0  0  0
    3.7060   -0.2742    2.4160 C   0  0  0  0  0  0  0  0  0  0  0  0
    3.1145   -1.4126    2.3994 O   0  0  0  0  0  0  0  0  0  0  0  0
    3.0392    0.8076    3.1660 C   0  0  2  0  0  0  0  0  0  0  0  0
    3.8545    1.3399    4.2803 C   0  0  0  0  0  0  0  0  0  0  0  0
    1.6948    0.3476    3.5877 N   0  0  0  0  0  0  0  0  0  0  0  0
    0.6253    0.4032    2.6870 C   0  0  0  0  0  0  0  0  0  0  0  0
    0.8339    0.8621    1.5186 O   0  0  0  0  0  0  0  0  0  0  0  0
   -0.7547   -0.0361    2.9657 C   0  0  2  0  0  0  0  0  0  0  0  0
   -0.7220   -1.5359    3.3802 C   0  0  0  0  0  0  0  0  0  0  0  0
   -1.5675    0.0061    1.7916 N   0  0  0  0  0  0  0  0  0  0  0  0
   -2.9792   -0.0971    1.7842 C   0  0  0  0  0  0  0  0  0  0  0  0
   -3.6440   -0.2497    2.8227 O   0  0  0  0  0  0  0  0  0  0  0  0
   -3.6937   -0.0250    0.4694 C   0  0  2  0  0  0  0  0  0  0  0  0
   -3.5933    1.4382    0.0135 C   0  0  0  0  0  0  0  0  0  0  0  0
   -5.0381   -0.4077    0.4311 N   0  0  0  0  0  0  0  0  0  0  0  0
   -6.1624    0.0926    1.1004 C   0  0  0  0  0  0  0  0  0  0  0  0
   -6.0665    1.0328    1.9095 O   0  0  0  0  0  0  0  0  0  0  0  0
   -7.4782   -0.5183    0.8169 C   0  0  2  0  0  0  0  0  0  0  0  0
   -7.7863   -0.2616   -0.6916 C   0  0  0  0  0  0  0  0  0  0  0  0
   -8.5847    0.0727    1.4974 N   0  0  0  0  0  0  0  0  0  0  0  0
   -9.7783   -0.6892    1.7520 C   0  0  0  0  0  0  0  0  0  0  0  0
   -9.8160   -1.8724    1.3740 O   0  0  0  0  0  0  0  0  0  0  0  0
  -10.9576   -0.0841    2.4435 C   0  0  2  0  0  0  0  0  0  0  0  0
  -10.9000   -0.4215    3.9036 C   0  0  0  0  0  0  0  0  0  0  0  0
  -12.1570   -0.6135    1.7936 N   0  0  0  0  0  0  0  0  0  0  0  0
  -12.9176    0.2020    0.9503 C   0  0  0  0  0  0  0  0  0  0  0  0
  -12.5528    1.4095    0.7704 O   0  0  0  0  0  0  0  0  0  0  0  0
  -14.1527   -0.2185    0.2116 C   0  0  2  0  0  0  0  0  0  0  0  0
  -13.7296   -1.3935   -0.6646 C   0  0  0  0  0  0  0  0  0  0  0  0
  -14.6649    0.8492   -0.5815 N   0  0  0  0  0  0  0  0  0  0  0  0
  -15.9920    1.3097   -0.5058 C   0  0  0  0  0  0  0  0  0  0  0  0
  -16.8510    0.8186    0.2612 O   0  0  0  0  0  0  0  0  0  0  0  0
  -16.3926    2.4598   -1.3965 C   0  0  2  0  0  0  0  0  0  0  0  0
  -16.1344    2.1113   -2.8500 C   0  0  0  0  0  0  0  0  0  0  0  0
  -15.6672    3.6797   -1.0191 C   0  0  0  0  0  0  0  0  0  0  0  0
  -15.8875    4.9363   -1.8093 C   0  0  0  0  0  0  0  0  0  0  0  0
  -14.8854    3.7572   -0.0954 O   0  0  0  0  0  0  0  0  0  0  0  0
    9.5943   -1.4600   -1.0745 C   0  0  0  0  0  0  0  0  0  0  0  0
    8.8288   -1.6626   -2.0817 O   0  0  0  0  0  0  0  0  0  0  0  0
   10.6752   -0.5880   -1.0353 N   0  0  0  0  0  0  0  0  0  0  0  0
   11.5164   -0.4409    0.1871 C   0  0  0  0  0  0  0  0  0  0  0  0
   12.9158   -0.5304   -0.4266 C   0  0  0  0  0  0  0  0  0  0  0  0
   12.7122   -0.2814   -1.9380 C   0  0  0  0  0  0  0  0  0  0  0  0
   11.3360    0.3607   -1.8775 C   0  0  1  0  0  0  0  0  0  0  0  0
   10.7656    0.8013   -3.1034 C   0  0  0  0  0  0  0  0  0  0  0  0
    9.7239    0.3500   -3.6057 O   0  0  0  0  0  0  0  0  0  0  0  0
   11.3946    1.8474   -3.8593 N   0  0  0  0  0  0  0  0  0  0  0  0
   12.6269    2.5164   -3.4830 C   0  0  0  0  0  0  0  0  0  0  0  0
   12.5110    3.9027   -4.0494 C   0  0  0  0  0  0  0  0  0  0  0  0
   11.4777    3.8535   -5.1318 C   0  0  0  0  0  0  0  0  0  0  0  0
   10.9898    2.4570   -5.0769 C   0  0  0  0  0  0  0  0  0  0  0  0
   10.3053    1.8495   -5.9668 O   0  0  0  0  0  0  0  0  0  0  0  0
   11.0275   -3.8270    1.8903 H   0  0  0  0  0  0  0  0  0  0  0  0
   12.0911   -5.1958    1.2682 H   0  0  0  0  0  0  0  0  0  0  0  0
   12.3756   -3.4863    0.7254 H   0  0  0  0  0  0  0  0  0  0  0  0
   10.4513   -5.5189   -0.1517 H   0  0  0  0  0  0  0  0  0  0  0  0
   10.7255   -4.2560   -2.2750 H   0  0  0  0  0  0  0  0  0  0  0  0
   12.0991   -5.0994   -1.5433 H   0  0  0  0  0  0  0  0  0  0  0  0
   12.1139   -3.3441   -1.4461 H   0  0  0  0  0  0  0  0  0  0  0  0
    8.8383   -4.2219    0.8391 H   0  0  0  0  0  0  0  0  0  0  0  0
    8.7660   -4.1264   -0.9450 H   0  0  0  0  0  0  0  0  0  0  0  0
    9.5325   -1.9159    1.0430 H   0  0  0  0  0  0  0  0  0  0  0  0
    7.1451   -2.7286   -0.5540 H   0  0  0  0  0  0  0  0  0  0  0  0
    5.0195   -2.1312    1.1895 H   0  0  0  0  0  0  0  0  0  0  0  0
    5.4272    0.0196   -0.9116 H   0  0  0  0  0  0  0  0  0  0  0  0
    4.0097   -1.0749   -0.4957 H   0  0  0  0  0  0  0  0  0  0  0  0
    5.5090   -1.7864   -1.0898 H   0  0  0  0  0  0  0  0  0  0  0  0
    5.3952    0.7851    1.7695 H   0  0  0  0  0  0  0  0  0  0  0  0
    2.7911    1.6506    2.4574 H   0  0  0  0  0  0  0  0  0  0  0  0
    4.8723    1.5651    3.8693 H   0  0  0  0  0  0  0  0  0  0  0  0
    3.4689    2.3308    4.6285 H   0  0  0  0  0  0  0  0  0  0  0  0
    3.9915    0.6439    5.1259 H   0  0  0  0  0  0  0  0  0  0  0  0
    1.5679   -0.0050    4.5411 H   0  0  0  0  0  0  0  0  0  0  0  0
   -1.2256    0.4461    3.8253 H   0  0  0  0  0  0  0  0  0  0  0  0
    0.0659   -2.0632    2.8192 H   0  0  0  0  0  0  0  0  0  0  0  0
   -1.7043   -1.9788    3.1910 H   0  0  0  0  0  0  0  0  0  0  0  0
   -0.4909   -1.5883    4.4534 H   0  0  0  0  0  0  0  0  0  0  0  0
   -1.0772    0.1240    0.8779 H   0  0  0  0  0  0  0  0  0  0  0  0
   -3.0872   -0.6506   -0.2496 H   0  0  0  0  0  0  0  0  0  0  0  0
   -4.2373    1.6464   -0.8503 H   0  0  0  0  0  0  0  0  0  0  0  0
   -3.8252    2.0577    0.9083 H   0  0  0  0  0  0  0  0  0  0  0  0
   -2.5335    1.6037   -0.2340 H   0  0  0  0  0  0  0  0  0  0  0  0
   -5.2582   -1.2455   -0.2455 H   0  0  0  0  0  0  0  0  0  0  0  0
   -7.4469   -1.6140    0.8872 H   0  0  0  0  0  0  0  0  0  0  0  0
   -7.0891   -0.8956   -1.2534 H   0  0  0  0  0  0  0  0  0  0  0  0
   -8.8517   -0.5121   -0.8688 H   0  0  0  0  0  0  0  0  0  0  0  0
   -7.5700    0.8103   -0.8823 H   0  0  0  0  0  0  0  0  0  0  0  0
   -8.5817    1.0486    1.8310 H   0  0  0  0  0  0  0  0  0  0  0  0
  -10.8902    1.0048    2.3144 H   0  0  0  0  0  0  0  0  0  0  0  0
  -10.5324    0.4452    4.4984 H   0  0  0  0  0  0  0  0  0  0  0  0
  -11.8900   -0.7487    4.3129 H   0  0  0  0  0  0  0  0  0  0  0  0
  -10.1575   -1.2460    4.0724 H   0  0  0  0  0  0  0  0  0  0  0  0
  -12.4008   -1.6006    1.9932 H   0  0  0  0  0  0  0  0  0  0  0  0
  -14.8960   -0.5917    0.9401 H   0  0  0  0  0  0  0  0  0  0  0  0
  -12.7469   -1.7854   -0.3858 H   0  0  0  0  0  0  0  0  0  0  0  0
  -14.4804   -2.1985   -0.6069 H   0  0  0  0  0  0  0  0  0  0  0  0
  -13.6607   -1.0202   -1.7210 H   0  0  0  0  0  0  0  0  0  0  0  0
  -13.9789    1.2981   -1.2556 H   0  0  0  0  0  0  0  0  0  0  0  0
  -17.4753    2.6391   -1.3062 H   0  0  0  0  0  0  0  0  0  0  0  0
  -17.0230    2.3602   -3.4895 H   0  0  0  0  0  0  0  0  0  0  0  0
  -15.2983    2.7390   -3.2614 H   0  0  0  0  0  0  0  0  0  0  0  0
  -15.8843    1.0416   -2.9781 H   0  0  0  0  0  0  0  0  0  0  0  0
  -16.0682    5.7922   -1.1424 H   0  0  0  0  0  0  0  0  0  0  0  0
  -14.9575    5.1172   -2.4211 H   0  0  0  0  0  0  0  0  0  0  0  0
  -16.7189    4.8113   -2.5140 H   0  0  0  0  0  0  0  0  0  0  0  0
   11.3015    0.5960    0.5357 H   0  0  0  0  0  0  0  0  0  0  0  0
   11.3609   -1.2051    0.9174 H   0  0  0  0  0  0  0  0  0  0  0  0
   13.4097   -1.4766   -0.2266 H   0  0  0  0  0  0  0  0  0  0  0  0
   13.4794    0.3070    0.0244 H   0  0  0  0  0  0  0  0  0  0  0  0
   12.7230   -1.2611   -2.4198 H   0  0  0  0  0  0  0  0  0  0  0  0
   13.5220    0.3835   -2.2183 H   0  0  0  0  0  0  0  0  0  0  0  0
   11.5313    1.2963   -1.2264 H   0  0  0  0  0  0  0  0  0  0  0  0
   12.6429    2.5809   -2.3818 H   0  0  0  0  0  0  0  0  0  0  0  0
   13.5111    2.0132   -3.9335 H   0  0  0  0  0  0  0  0  0  0  0  0
   12.2089    4.6672   -3.3085 H   0  0  0  0  0  0  0  0  0  0  0  0
   13.5114    4.2102   -4.4259 H   0  0  0  0  0  0  0  0  0  0  0  0
   12.0142    4.0286   -6.1054 H   0  0  0  0  0  0  0  0  0  0  0  0
   10.6602    4.5964   -4.9767 H   0  0  0  0  0  0  0  0  0  0  0  0
  1  2  1  0
  2  3  1  0
  2  4  1  0
  4  5  1  0
  5  6  1  0
  6  7  1  0
  7  8  2  0
  7  9  1  0
  9 10  1  0
  9 11  1  0
 11 12  1  0
 12 13  2  0
 12 14  1  0
 14 15  1  0
 14 16  1  0
 16 17  1  0
 17 18  2  0
 17 19  1  0
 19 20  1  0
 19 21  1  0
 21 22  1  0
 22 23  2  0
 22 24  1  0
 24 25  1  0
 24 26  1  0
 26 27  1  0
 27 28  2  0
 27 29  1  0
 29 30  1  0
 29 31  1  0
 31 32  1  0
 32 33  2  0
 32 34  1  0
 34 35  1  0
 34 36  1  0
 36 37  1  0
 37 38  2  0
 37 39  1  0
 39 40  1  0
 39 41  1  0
 41 42  1  0
 42 43  2  0
 42 44  1  0
 44 45  1  0
 44 46  1  0
 46 47  1  0
 46 48  2  0
  5 49  1  0
 49 50  2  0
 49 51  1  0
 51 52  1  0
 52 53  1  0
 53 54  1  0
 54 55  1  0
 55 56  1  0
 56 57  2  0
 56 58  1  0
 58 59  1  0
 59 60  1  0
 60 61  1  0
 61 62  1  0
 62 63  2  0
 55 51  1  0
 62 58  1  0
  1 64  1  0
  1 65  1  0
  1 66  1  0
  2 67  1  0
  3 68  1  0
  3 69  1  0
  3 70  1  0
  4 71  1  0
  4 72  1  0
  5 73  1  1
  6 74  1  0
  9 75  1  1
 10 76  1  0
 10 77  1  0
 10 78  1  0
 11 79  1  0
 14 80  1  6
 15 81  1  0
 15 82  1  0
 15 83  1  0
 16 84  1  0
 19 85  1  1
 20 86  1  0
 20 87  1  0
 20 88  1  0
 21 89  1  0
 24 90  1  6
 25 91  1  0
 25 92  1  0
 25 93  1  0
 26 94  1  0
 29 95  1  6
 30 96  1  0
 30 97  1  0
 30 98  1  0
 31 99  1  0
 34100  1  1
 35101  1  0
 35102  1  0
 35103  1  0
 36104  1  0
 39105  1  1
 40106  1  0
 40107  1  0
 40108  1  0
 41109  1  0
 44110  1  6
 45111  1  0
 45112  1  0
 45113  1  0
 47114  1  0
 47115  1  0
 47116  1  0
 52117  1  0
 52118  1  0
 53119  1  0
 53120  1  0
 54121  1  0
 54122  1  0
 55123  1  1
 59124  1  0
 59125  1  0
 60126  1  0
 60127  1  0
 61128  1  0
 61129  1  0
M  END
$$$$
[H]N(C(=O)[C@@]([H])(N([H])C(=O)[C@@]([H])(N([H])C(=O)[C@@]([H])(N([H])C(=O)[C@@]([H])(C(=O)C([H])([H])[H])C([H])([H])[H])C([H])([H])[H])C([H])([H])[H])C([H])([H])[H])[C@]([H])(C(=O)N([H])[C@]([H])(C(=O)N([H])[C@]([H])(C(=O)N([H])[C@]([H])(C(=O)N([H])[C@]([H])(C(=O)N1C([H])([H])C([H])([H])C([H])([H])[C@@]1([H])C(=O)N(C([H])([H])[H])C([H])([H])[H])C([H])([H])C([H])(C([H])([H])[H])C([H])([H])[H])C([H])([H])[H])C([H])([H])[H])C([H])([H])[H])C([H])([H])[H]
     RDKit          3D

126126  0  0  0  0  0  0  0  0999 V2000
  -10.8110   -2.7641   -2.8112 C   0  0  0  0  0  0  0  0  0  0  0  0
  -11.1767   -3.1702   -1.3912 C   0  0  0  0  0  0  0  0  0  0  0  0
  -10.1831   -4.1189   -0.8420 C   0  0  0  0  0  0  0  0  0  0  0  0
  -11.5748   -2.0125   -0.5489 C   0  0  0  0  0  0  0  0  0  0  0  0
  -10.6139   -0.9181   -0.3760 C   0  0  2  0  0  0  0  0  0  0  0  0
   -9.3851   -1.3842    0.2405 N   0  0  0  0  0  0  0  0  0  0  0  0
   -8.1210   -0.8941   -0.1695 C   0  0  0  0  0  0  0  0  0  0  0  0
   -8.1146   -0.0252   -1.1127 O   0  0  0  0  0  0  0  0  0  0  0  0
   -6.8444   -1.3308    0.4405 C   0  0  2  0  0  0  0  0  0  0  0  0
   -6.9684   -1.8162    1.8534 C   0  0  0  0  0  0  0  0  0  0  0  0
   -5.7916   -0.3605    0.2221 N   0  0  0  0  0  0  0  0  0  0  0  0
   -4.5066   -0.6146   -0.2674 C   0  0  0  0  0  0  0  0  0  0  0  0
   -4.1178   -1.7539   -0.5760 O   0  0  0  0  0  0  0  0  0  0  0  0
   -3.5008    0.4957   -0.4538 C   0  0  2  0  0  0  0  0  0  0  0  0
   -3.9996    1.4721   -1.4852 C   0  0  0  0  0  0  0  0  0  0  0  0
   -2.2466   -0.0503   -0.9221 N   0  0  0  0  0  0  0  0  0  0  0  0
   -1.0270    0.1248   -0.2279 C   0  0  0  0  0  0  0  0  0  0  0  0
   -1.1234    0.8205    0.8492 O   0  0  0  0  0  0  0  0  0  0  0  0
    0.2457   -0.4302   -0.6805 C   0  0  2  0  0  0  0  0  0  0  0  0
    0.1299   -1.9422   -0.9218 C   0  0  0  0  0  0  0  0  0  0  0  0
    1.3816   -0.1493    0.1545 N   0  0  0  0  0  0  0  0  0  0  0  0
    2.6673    0.1001   -0.3488 C   0  0  0  0  0  0  0  0  0  0  0  0
    2.8547    0.0519   -1.6073 O   0  0  0  0  0  0  0  0  0  0  0  0
    3.8376    0.4192    0.4805 C   0  0  2  0  0  0  0  0  0  0  0  0
    3.5798    1.8113    1.0636 C   0  0  0  0  0  0  0  0  0  0  0  0
    5.0698    0.4195   -0.2917 N   0  0  0  0  0  0  0  0  0  0  0  0
    6.2970   -0.1031    0.1955 C   0  0  0  0  0  0  0  0  0  0  0  0
    6.2678   -0.5663    1.3941 O   0  0  0  0  0  0  0  0  0  0  0  0
    7.5172   -0.1235   -0.5882 C   0  0  2  0  0  0  0  0  0  0  0  0
    7.3689   -1.1034   -1.7869 C   0  0  0  0  0  0  0  0  0  0  0  0
    8.6926   -0.5410    0.1625 N   0  0  0  0  0  0  0  0  0  0  0  0
    9.9565   -0.0386   -0.2115 C   0  0  0  0  0  0  0  0  0  0  0  0
   10.0123    0.7722   -1.2219 O   0  0  0  0  0  0  0  0  0  0  0  0
   11.2317   -0.3321    0.4209 C   0  0  2  0  0  0  0  0  0  0  0  0
   11.5697    0.8093    1.4168 C   0  0  0  0  0  0  0  0  0  0  0  0
   12.2994   -0.4041   -0.5608 N   0  0  0  0  0  0  0  0  0  0  0  0
   13.6545   -0.7642   -0.2476 C   0  0  0  0  0  0  0  0  0  0  0  0
   13.8940   -1.0032    0.9811 O   0  0  0  0  0  0  0  0  0  0  0  0
   14.6932   -0.8497   -1.2747 C   0  0  2  0  0  0  0  0  0  0  0  0
   14.8791   -2.3212   -1.7082 C   0  0  0  0  0  0  0  0  0  0  0  0
   15.9641   -0.3458   -0.7546 N   0  0  0  0  0  0  0  0  0  0  0  0
   16.8245    0.4482   -1.5322 C   0  0  0  0  0  0  0  0  0  0  0  0
   16.4938    0.7288   -2.7122 O   0  0  0  0  0  0  0  0  0  0  0  0
   18.1018    0.9330   -0.9340 C   0  0  2  0  0  0  0  0  0  0  0  0
   18.9408   -0.1802   -0.3597 C   0  0  0  0  0  0  0  0  0  0  0  0
   17.9605    2.0897   -0.0705 C   0  0  0  0  0  0  0  0  0  0  0  0
   17.1286    2.1573    1.1649 C   0  0  0  0  0  0  0  0  0  0  0  0
   18.5641    3.1406   -0.3414 O   0  0  0  0  0  0  0  0  0  0  0  0
  -11.1032    0.1880    0.5266 C   0  0  0  0  0  0  0  0  0  0  0  0
  -10.4078    0.4112    1.5657 O   0  0  0  0  0  0  0  0  0  0  0  0
  -12.2589    0.9667    0.2734 N   0  0  0  0  0  0  0  0  0  0  0  0
  -13.2059    0.9091   -0.8013 C   0  0  0  0  0  0  0  0  0  0  0  0
  -13.8589    2.2942   -0.8835 C   0  0  0  0  0  0  0  0  0  0  0  0
  -13.1474    3.0863    0.1694 C   0  0  0  0  0  0  0  0  0  0  0  0
  -12.7043    2.0624    1.1444 C   0  0  1  0  0  0  0  0  0  0  0  0
  -13.7303    1.6365    2.1214 C   0  0  0  0  0  0  0  0  0  0  0  0
  -14.1724    0.4533    2.0123 O   0  0  0  0  0  0  0  0  0  0  0  0
  -14.2298    2.4544    3.1433 N   0  0  0  0  0  0  0  0  0  0  0  0
  -13.7603    3.8256    3.3286 C   0  0  0  0  0  0  0  0  0  0  0  0
  -15.2355    1.9627    4.0440 C   0  0  0  0  0  0  0  0  0  0  0  0
  -10.3774   -3.5872   -3.4018 H   0  0  0  0  0  0  0  0  0  0  0  0
  -10.0160   -1.9819   -2.7309 H   0  0  0  0  0  0  0  0  0  0  0  0
  -11.6695   -2.3469   -3.3494 H   0  0  0  0  0  0  0  0  0  0  0  0
  -12.1297   -3.7867   -1.5385 H   0  0  0  0  0  0  0  0  0  0  0  0
  -10.1800   -5.0065   -1.5563 H   0  0  0  0  0  0  0  0  0  0  0  0
  -10.4732   -4.5399    0.1335 H   0  0  0  0  0  0  0  0  0  0  0  0
   -9.1328   -3.7610   -0.8964 H   0  0  0  0  0  0  0  0  0  0  0  0
  -11.9403   -2.4313    0.4388 H   0  0  0  0  0  0  0  0  0  0  0  0
  -12.5332   -1.6163   -1.0032 H   0  0  0  0  0  0  0  0  0  0  0  0
  -10.2919   -0.4095   -1.3150 H   0  0  0  0  0  0  0  0  0  0  0  0
   -9.3754   -2.0869    1.0176 H   0  0  0  0  0  0  0  0  0  0  0  0
   -6.5170   -2.2504   -0.1482 H   0  0  0  0  0  0  0  0  0  0  0  0
   -7.5186   -1.1402    2.5084 H   0  0  0  0  0  0  0  0  0  0  0  0
   -7.3332   -2.8699    1.8346 H   0  0  0  0  0  0  0  0  0  0  0  0
   -5.9128   -1.9015    2.2585 H   0  0  0  0  0  0  0  0  0  0  0  0
   -6.0203    0.6647    0.4470 H   0  0  0  0  0  0  0  0  0  0  0  0
   -3.4048    1.0233    0.5081 H   0  0  0  0  0  0  0  0  0  0  0  0
   -5.0907    1.6734   -1.4072 H   0  0  0  0  0  0  0  0  0  0  0  0
   -3.8145    1.0628   -2.4950 H   0  0  0  0  0  0  0  0  0  0  0  0
   -3.5060    2.4432   -1.3115 H   0  0  0  0  0  0  0  0  0  0  0  0
   -2.2841   -0.6009   -1.8308 H   0  0  0  0  0  0  0  0  0  0  0  0
    0.4776   -0.0263   -1.7103 H   0  0  0  0  0  0  0  0  0  0  0  0
   -0.7859   -2.0557   -1.5436 H   0  0  0  0  0  0  0  0  0  0  0  0
    0.9996   -2.2051   -1.5346 H   0  0  0  0  0  0  0  0  0  0  0  0
   -0.0227   -2.5177   -0.0165 H   0  0  0  0  0  0  0  0  0  0  0  0
    1.2221   -0.1259    1.1901 H   0  0  0  0  0  0  0  0  0  0  0  0
    4.0029   -0.2700    1.3420 H   0  0  0  0  0  0  0  0  0  0  0  0
    4.4760    2.2345    1.5042 H   0  0  0  0  0  0  0  0  0  0  0  0
    3.1403    2.5061    0.3463 H   0  0  0  0  0  0  0  0  0  0  0  0
    2.8357    1.6452    1.8789 H   0  0  0  0  0  0  0  0  0  0  0  0
    5.0326    0.8263   -1.2297 H   0  0  0  0  0  0  0  0  0  0  0  0
    7.7307    0.8323   -1.0731 H   0  0  0  0  0  0  0  0  0  0  0  0
    7.2519   -2.1171   -1.4004 H   0  0  0  0  0  0  0  0  0  0  0  0
    8.2615   -1.0151   -2.3987 H   0  0  0  0  0  0  0  0  0  0  0  0
    6.4983   -0.7359   -2.3490 H   0  0  0  0  0  0  0  0  0  0  0  0
    8.5513   -1.1902    0.9575 H   0  0  0  0  0  0  0  0  0  0  0  0
   11.2330   -1.2248    1.0376 H   0  0  0  0  0  0  0  0  0  0  0  0
   10.6130    1.2171    1.7505 H   0  0  0  0  0  0  0  0  0  0  0  0
   12.2788    1.5236    0.9741 H   0  0  0  0  0  0  0  0  0  0  0  0
   12.0544    0.3493    2.2802 H   0  0  0  0  0  0  0  0  0  0  0  0
   12.0807   -0.1919   -1.5653 H   0  0  0  0  0  0  0  0  0  0  0  0
   14.4892   -0.3175   -2.2155 H   0  0  0  0  0  0  0  0  0  0  0  0
   15.7083   -2.3327   -2.4262 H   0  0  0  0  0  0  0  0  0  0  0  0
   15.0748   -2.9606   -0.8286 H   0  0  0  0  0  0  0  0  0  0  0  0
   13.9512   -2.5902   -2.2580 H   0  0  0  0  0  0  0  0  0  0  0  0
   16.2326   -0.5845    0.2250 H   0  0  0  0  0  0  0  0  0  0  0  0
   18.6928    1.2896   -1.8498 H   0  0  0  0  0  0  0  0  0  0  0  0
   18.6151   -0.4604    0.6627 H   0  0  0  0  0  0  0  0  0  0  0  0
   18.8751   -1.1003   -1.0001 H   0  0  0  0  0  0  0  0  0  0  0  0
   20.0189    0.1308   -0.4142 H   0  0  0  0  0  0  0  0  0  0  0  0
   16.9044    3.2058    1.4507 H   0  0  0  0  0  0  0  0  0  0  0  0
   17.5140    1.5568    1.9822 H   0  0  0  0  0  0  0  0  0  0  0  0
   16.1291    1.7112    0.9053 H   0  0  0  0  0  0  0  0  0  0  0  0
  -12.7588    0.6271   -1.7588 H   0  0  0  0  0  0  0  0  0  0  0  0
  -13.9957    0.1629   -0.5328 H   0  0  0  0  0  0  0  0  0  0  0  0
  -13.6006    2.7009   -1.8942 H   0  0  0  0  0  0  0  0  0  0  0  0
  -14.9397    2.2288   -0.7496 H   0  0  0  0  0  0  0  0  0  0  0  0
  -13.7803    3.9080    0.5805 H   0  0  0  0  0  0  0  0  0  0  0  0
  -12.2493    3.5971   -0.2300 H   0  0  0  0  0  0  0  0  0  0  0  0
  -11.8419    2.4470    1.7589 H   0  0  0  0  0  0  0  0  0  0  0  0
  -13.5404    4.0191    4.4045 H   0  0  0  0  0  0  0  0  0  0  0  0
  -12.8717    4.0666    2.7261 H   0  0  0  0  0  0  0  0  0  0  0  0
  -14.5644    4.5285    3.0371 H   0  0  0  0  0  0  0  0  0  0  0  0
  -15.0646    0.9195    4.3804 H   0  0  0  0  0  0  0  0  0  0  0  0
  -16.2365    1.9821    3.5367 H   0  0  0  0  0  0  0  0  0  0  0  0
  -15.3296    2.6225    4.9512 H   0  0  0  0  0  0  0  0  0  0  0  0
  1  2  1  0
  2  3  1  0
  2  4  1  0
  4  5  1  0
  5  6  1  0
  6  7  1  0
  7  8  2  0
  7  9  1  0
  9 10  1  0
  9 11  1  0
 11 12  1  0
 12 13  2  0
 12 14  1  0
 14 15  1  0
 14 16  1  0
 16 17  1  0
 17 18  2  0
 17 19  1  0
 19 20  1  0
 19 21  1  0
 21 22  1  0
 22 23  2  0
 22 24  1  0
 24 25  1  0
 24 26  1  0
 26 27  1  0
 27 28  2  0
 27 29  1  0
 29 30  1  0
 29 31  1  0
 31 32  1  0
 32 33  2  0
 32 34  1  0
 34 35  1  0
 34 36  1  0
 36 37  1  0
 37 38  2  0
 37 39  1  0
 39 40  1  0
 39 41  1  0
 41 42  1  0
 42 43  2  0
 42 44  1  0
 44 45  1  0
 44 46  1  0
 46 47  1  0
 46 48  2  0
  5 49  1  0
 49 50  2  0
 49 51  1  0
 51 52  1  0
 52 53  1  0
 53 54  1  0
 54 55  1  0
 55 56  1  0
 56 57  2  0
 56 58  1  0
 58 59  1  0
 58 60  1  0
 55 51  1  0
  1 61  1  0
  1 62  1  0
  1 63  1  0
  2 64  1  0
  3 65  1  0
  3 66  1  0
  3 67  1  0
  4 68  1  0
  4 69  1  0
  5 70  1  6
  6 71  1  0
  9 72  1  6
 10 73  1  0
 10 74  1  0
 10 75  1  0
 11 76  1  0
 14 77  1  1
 15 78  1  0
 15 79  1  0
 15 80  1  0
 16 81  1  0
 19 82  1  6
 20 83  1  0
 20 84  1  0
 20 85  1  0
 21 86  1  0
 24 87  1  1
 25 88  1  0
 25 89  1  0
 25 90  1  0
 26 91  1  0
 29 92  1  6
 30 93  1  0
 30 94  1  0
 30 95  1  0
 31 96  1  0
 34 97  1  1
 35 98  1  0
 35 99  1  0
 35100  1  0
 36101  1  0
 39102  1  6
 40103  1  0
 40104  1  0
 40105  1  0
 41106  1  0
 44107  1  6
 45108  1  0
 45109  1  0
 45110  1  0
 47111  1  0
 47112  1  0
 47113  1  0
 52114  1  0
 52115  1  0
 53116  1  0
 53117  1  0
 54118  1  0
 54119  1  0
 55120  1  1
 59121  1  0
 59122  1  0
 59123  1  0
 60124  1  0
 60125  1  0
 60126  1  0
M  END
$$$$
[H]N(C(=O)[C@]([H])(C(=O)C([H])([H])[H])C([H])([H])[H])[C@]([H])(C(=O)N([H])[C@]([H])(C(=O)N([H])[C@]([H])(C(=O)N([H])[C@]([H])(C(=O)N([H])[C@]([H])(C(=O)N([H])[C@]([H])(C(=O)N([H])[C@]([H])(C(=O)N([H])[C@]([H])(C(=O)N1C([H])([H])C([H])([H])C([H])([H])[C@@]1([H])C(=O)N(C([H])([H])[H])C([H])([H])[H])C([H])([H])C([H])(C([H])([H])[H])C([H])([H])[H])C([H])([H])[H])C([H])([H])[H])C([H])([H])[H])C([H])([H])[H])C([H])([H])[H])C([H])([H])[H])C([H])([H])[H]
     RDKit          3D

126126  0  0  0  0  0  0  0  0999 V2000
   -9.7728   -0.2568   -2.7394 C   0  0  0  0  0  0  0  0  0  0  0  0
   -9.0900    1.0832   -2.8919 C   0  0  0  0  0  0  0  0  0  0  0  0
  -10.0042    1.8805   -3.8499 C   0  0  0  0  0  0  0  0  0  0  0  0
   -8.8991    1.8259   -1.6235 C   0  0  0  0  0  0  0  0  0  0  0  0
   -8.0792    1.2636   -0.5666 C   0  0  2  0  0  0  0  0  0  0  0  0
   -6.6802    0.9824   -1.0234 N   0  0  0  0  0  0  0  0  0  0  0  0
   -6.1382   -0.2982   -1.0166 C   0  0  0  0  0  0  0  0  0  0  0  0
   -6.7685   -1.3081   -0.7045 O   0  0  0  0  0  0  0  0  0  0  0  0
   -4.7047   -0.5725   -1.3577 C   0  0  2  0  0  0  0  0  0  0  0  0
   -4.7166   -2.2058   -1.3231 C   0  0  0  0  0  0  0  0  0  0  0  0
   -3.8631   -0.2528   -0.2787 N   0  0  0  0  0  0  0  0  0  0  0  0
   -3.1769   -0.9391    0.6906 C   0  0  0  0  0  0  0  0  0  0  0  0
   -3.1313   -2.1559    0.9491 O   0  0  0  0  0  0  0  0  0  0  0  0
   -2.2600   -0.0451    1.5722 C   0  0  2  0  0  0  0  0  0  0  0  0
   -2.9953    1.1095    2.1263 C   0  0  0  0  0  0  0  0  0  0  0  0
   -1.3042    0.2862    0.5374 N   0  0  0  0  0  0  0  0  0  0  0  0
   -0.8002    1.4745    0.0841 C   0  0  0  0  0  0  0  0  0  0  0  0
   -0.9771    2.5991    0.4845 O   0  0  0  0  0  0  0  0  0  0  0  0
    0.1149    1.1921   -1.1284 C   0  0  2  0  0  0  0  0  0  0  0  0
   -0.6664    0.3149   -2.1166 C   0  0  0  0  0  0  0  0  0  0  0  0
    1.1163    0.3605   -0.4717 N   0  0  0  0  0  0  0  0  0  0  0  0
    2.0592   -0.3967   -1.0938 C   0  0  0  0  0  0  0  0  0  0  0  0
    2.2491   -0.5183   -2.3521 O   0  0  0  0  0  0  0  0  0  0  0  0
    3.0158   -1.1791   -0.2186 C   0  0  2  0  0  0  0  0  0  0  0  0
    2.8609   -0.6276    1.2088 C   0  0  0  0  0  0  0  0  0  0  0  0
    4.2649   -0.7324   -0.8353 N   0  0  0  0  0  0  0  0  0  0  0  0
    5.3682   -0.3201   -0.1871 C   0  0  0  0  0  0  0  0  0  0  0  0
    5.4546   -0.3645    1.0900 O   0  0  0  0  0  0  0  0  0  0  0  0
    6.5419    0.2212   -0.9834 C   0  0  2  0  0  0  0  0  0  0  0  0
    6.6216   -0.3608   -2.3288 C   0  0  0  0  0  0  0  0  0  0  0  0
    7.6051    0.0483   -0.0660 N   0  0  0  0  0  0  0  0  0  0  0  0
    8.0233    1.2403    0.6912 C   0  0  0  0  0  0  0  0  0  0  0  0
    7.5989    2.3407    0.6299 O   0  0  0  0  0  0  0  0  0  0  0  0
    9.1869    0.9053    1.6371 C   0  0  2  0  0  0  0  0  0  0  0  0
   10.0039    2.1513    1.7614 C   0  0  0  0  0  0  0  0  0  0  0  0
    9.8819   -0.1003    0.8120 N   0  0  0  0  0  0  0  0  0  0  0  0
   10.6838    0.0754   -0.2366 C   0  0  0  0  0  0  0  0  0  0  0  0
   10.9796    1.2636   -0.6112 O   0  0  0  0  0  0  0  0  0  0  0  0
   11.3003   -0.9852   -1.0648 C   0  0  2  0  0  0  0  0  0  0  0  0
   11.0504   -2.3913   -0.7370 C   0  0  0  0  0  0  0  0  0  0  0  0
   12.7344   -0.5887   -1.1207 N   0  0  0  0  0  0  0  0  0  0  0  0
   13.3452   -0.2199    0.0844 C   0  0  0  0  0  0  0  0  0  0  0  0
   12.7352   -0.2424    1.2006 O   0  0  0  0  0  0  0  0  0  0  0  0
   14.7396    0.2263    0.1264 C   0  0  1  0  0  0  0  0  0  0  0  0
   15.5766   -1.0044   -0.2568 C   0  0  0  0  0  0  0  0  0  0  0  0
   14.9532    1.3486   -0.7778 C   0  0  0  0  0  0  0  0  0  0  0  0
   14.2377    2.6307   -0.5282 C   0  0  0  0  0  0  0  0  0  0  0  0
   15.7065    1.2830   -1.7452 O   0  0  0  0  0  0  0  0  0  0  0  0
   -8.4941    0.2646    0.3872 C   0  0  0  0  0  0  0  0  0  0  0  0
   -7.4444   -0.3445    1.0096 O   0  0  0  0  0  0  0  0  0  0  0  0
   -9.6442   -0.3062    0.8925 N   0  0  0  0  0  0  0  0  0  0  0  0
   -9.7543   -1.7588    1.1592 C   0  0  0  0  0  0  0  0  0  0  0  0
  -11.2106   -2.0368    0.9996 C   0  0  0  0  0  0  0  0  0  0  0  0
  -11.8912   -0.6764    0.8489 C   0  0  0  0  0  0  0  0  0  0  0  0
  -10.8660    0.2126    1.5161 C   0  0  1  0  0  0  0  0  0  0  0  0
  -10.8548   -0.1231    2.9434 C   0  0  0  0  0  0  0  0  0  0  0  0
   -9.8960   -0.7413    3.5337 O   0  0  0  0  0  0  0  0  0  0  0  0
  -11.9133    0.1973    3.8118 N   0  0  0  0  0  0  0  0  0  0  0  0
  -12.0127   -0.3911    5.1525 C   0  0  0  0  0  0  0  0  0  0  0  0
  -12.8782    1.1921    3.4052 C   0  0  0  0  0  0  0  0  0  0  0  0
   -9.1100   -0.9081   -2.1466 H   0  0  0  0  0  0  0  0  0  0  0  0
   -9.9220   -0.7610   -3.7396 H   0  0  0  0  0  0  0  0  0  0  0  0
  -10.7286   -0.1851   -2.2275 H   0  0  0  0  0  0  0  0  0  0  0  0
   -8.1402    0.9831   -3.4781 H   0  0  0  0  0  0  0  0  0  0  0  0
   -9.6125    2.8781   -4.0647 H   0  0  0  0  0  0  0  0  0  0  0  0
  -11.0344    1.9498   -3.4492 H   0  0  0  0  0  0  0  0  0  0  0  0
  -10.0797    1.2890   -4.8062 H   0  0  0  0  0  0  0  0  0  0  0  0
   -9.9148    2.1656   -1.2986 H   0  0  0  0  0  0  0  0  0  0  0  0
   -8.4517    2.8492   -1.9756 H   0  0  0  0  0  0  0  0  0  0  0  0
   -7.8345    2.1819    0.1535 H   0  0  0  0  0  0  0  0  0  0  0  0
   -6.1421    1.7842   -1.3342 H   0  0  0  0  0  0  0  0  0  0  0  0
   -4.3933   -0.3793   -2.3300 H   0  0  0  0  0  0  0  0  0  0  0  0
   -5.3261   -2.5042   -2.1582 H   0  0  0  0  0  0  0  0  0  0  0  0
   -3.6730   -2.5261   -1.3761 H   0  0  0  0  0  0  0  0  0  0  0  0
   -5.1865   -2.3887   -0.3417 H   0  0  0  0  0  0  0  0  0  0  0  0
   -3.7167    0.8505   -0.2343 H   0  0  0  0  0  0  0  0  0  0  0  0
   -1.7440   -0.6234    2.3177 H   0  0  0  0  0  0  0  0  0  0  0  0
   -2.2552    1.9177    2.4973 H   0  0  0  0  0  0  0  0  0  0  0  0
   -3.7255    1.6302    1.5421 H   0  0  0  0  0  0  0  0  0  0  0  0
   -3.4926    0.7267    3.0927 H   0  0  0  0  0  0  0  0  0  0  0  0
   -0.9077   -0.6249    0.0994 H   0  0  0  0  0  0  0  0  0  0  0  0
    0.4860    1.9958   -1.6502 H   0  0  0  0  0  0  0  0  0  0  0  0
   -0.7943   -0.7148   -1.7950 H   0  0  0  0  0  0  0  0  0  0  0  0
   -0.1254    0.3059   -3.0786 H   0  0  0  0  0  0  0  0  0  0  0  0
   -1.6723    0.7652   -2.2617 H   0  0  0  0  0  0  0  0  0  0  0  0
    1.0700    0.4097    0.5866 H   0  0  0  0  0  0  0  0  0  0  0  0
    2.8879   -2.2310   -0.1367 H   0  0  0  0  0  0  0  0  0  0  0  0
    3.4876   -1.1961    1.9431 H   0  0  0  0  0  0  0  0  0  0  0  0
    1.8062   -0.8756    1.5555 H   0  0  0  0  0  0  0  0  0  0  0  0
    3.0465    0.4420    1.2688 H   0  0  0  0  0  0  0  0  0  0  0  0
    4.2715   -0.8038   -1.9041 H   0  0  0  0  0  0  0  0  0  0  0  0
    6.3197    1.3401   -1.1421 H   0  0  0  0  0  0  0  0  0  0  0  0
    6.2682   -1.4275   -2.4112 H   0  0  0  0  0  0  0  0  0  0  0  0
    7.6194   -0.2889   -2.8391 H   0  0  0  0  0  0  0  0  0  0  0  0
    5.9195    0.2031   -3.0284 H   0  0  0  0  0  0  0  0  0  0  0  0
    8.0678   -0.8540    0.0279 H   0  0  0  0  0  0  0  0  0  0  0  0
    8.8365    0.5011    2.5533 H   0  0  0  0  0  0  0  0  0  0  0  0
    9.6851    2.6184    2.7361 H   0  0  0  0  0  0  0  0  0  0  0  0
    9.7271    2.9181    0.9911 H   0  0  0  0  0  0  0  0  0  0  0  0
   11.0639    1.9551    1.8579 H   0  0  0  0  0  0  0  0  0  0  0  0
    9.6708   -1.0925    1.1577 H   0  0  0  0  0  0  0  0  0  0  0  0
   10.9123   -0.8349   -2.1441 H   0  0  0  0  0  0  0  0  0  0  0  0
   11.9382   -3.0083   -1.0697 H   0  0  0  0  0  0  0  0  0  0  0  0
   10.2051   -2.7776   -1.4004 H   0  0  0  0  0  0  0  0  0  0  0  0
   10.7728   -2.6680    0.2782 H   0  0  0  0  0  0  0  0  0  0  0  0
   13.1986   -0.5752   -2.0168 H   0  0  0  0  0  0  0  0  0  0  0  0
   15.0530    0.5103    1.1842 H   0  0  0  0  0  0  0  0  0  0  0  0
   16.6526   -0.7770   -0.2715 H   0  0  0  0  0  0  0  0  0  0  0  0
   15.3641   -1.7817    0.5401 H   0  0  0  0  0  0  0  0  0  0  0  0
   15.1613   -1.3868   -1.2063 H   0  0  0  0  0  0  0  0  0  0  0  0
   13.7513    2.9971   -1.4579 H   0  0  0  0  0  0  0  0  0  0  0  0
   13.3856    2.4895    0.1997 H   0  0  0  0  0  0  0  0  0  0  0  0
   14.9063    3.3862   -0.0999 H   0  0  0  0  0  0  0  0  0  0  0  0
   -9.2245   -2.2791    0.2726 H   0  0  0  0  0  0  0  0  0  0  0  0
   -9.3134   -2.0570    2.0665 H   0  0  0  0  0  0  0  0  0  0  0  0
  -11.6645   -2.5503    1.8527 H   0  0  0  0  0  0  0  0  0  0  0  0
  -11.4255   -2.5889    0.0531 H   0  0  0  0  0  0  0  0  0  0  0  0
  -11.8990   -0.4104   -0.2078 H   0  0  0  0  0  0  0  0  0  0  0  0
  -12.8717   -0.6776    1.3303 H   0  0  0  0  0  0  0  0  0  0  0  0
  -10.9804    1.2710    1.3863 H   0  0  0  0  0  0  0  0  0  0  0  0
  -11.8553    0.3423    5.9397 H   0  0  0  0  0  0  0  0  0  0  0  0
  -12.9922   -0.9064    5.3104 H   0  0  0  0  0  0  0  0  0  0  0  0
  -11.2359   -1.2022    5.1990 H   0  0  0  0  0  0  0  0  0  0  0  0
  -12.4505    2.1712    3.8416 H   0  0  0  0  0  0  0  0  0  0  0  0
  -13.8873    1.0464    3.8191 H   0  0  0  0  0  0  0  0  0  0  0  0
  -12.8741    1.3995    2.3172 H   0  0  0  0  0  0  0  0  0  0  0  0
  1  2  1  0
  2  3  1  0
  2  4  1  0
  4  5  1  0
  5  6  1  0
  6  7  1  0
  7  8  2  0
  7  9  1  0
  9 10  1  0
  9 11  1  0
 11 12  1  0
 12 13  2  0
 12 14  1  0
 14 15  1  0
 14 16  1  0
 16 17  1  0
 17 18  2  0
 17 19  1  0
 19 20  1  0
 19 21  1  0
 21 22  1  0
 22 23  2  0
 22 24  1  0
 24 25  1  0
 24 26  1  0
 26 27  1  0
 27 28  2  0
 27 29  1  0
 29 30  1  0
 29 31  1  0
 31 32  1  0
 32 33  2  0
 32 34  1  0
 34 35  1  0
 34 36  1  0
 36 37  1  0
 37 38  2  0
 37 39  1  0
 39 40  1  0
 39 41  1  0
 41 42  1  0
 42 43  2  0
 42 44  1  0
 44 45  1  0
 44 46  1  0
 46 47  1  0
 46 48  2  0
  5 49  1  0
 49 50  2  0
 49 51  1  0
 51 52  1  0
 52 53  1  0
 53 54  1  0
 54 55  1  0
 55 56  1  0
 56 57  2  0
 56 58  1  0
 58 59  1  0
 58 60  1  0
 55 51  1  0
  1 61  1  0
  1 62  1  0
  1 63  1  0
  2 64  1  0
  3 65  1  0
  3 66  1  0
  3 67  1  0
  4 68  1  0
  4 69  1  0
  5 70  1  1
  6 71  1  0
  9 72  1  6
 10 73  1  0
 10 74  1  0
 10 75  1  0
 11 76  1  0
 14 77  1  1
 15 78  1  0
 15 79  1  0
 15 80  1  0
 16 81  1  0
 19 82  1  6
 20 83  1  0
 20 84  1  0
 20 85  1  0
 21 86  1  0
 24 87  1  1
 25 88  1  0
 25 89  1  0
 25 90  1  0
 26 91  1  0
 29 92  1  6
 30 93  1  0
 30 94  1  0
 30 95  1  0
 31 96  1  0
 34 97  1  1
 35 98  1  0
 35 99  1  0
 35100  1  0
 36101  1  0
 39102  1  6
 40103  1  0
 40104  1  0
 40105  1  0
 41106  1  0
 44107  1  1
 45108  1  0
 45109  1  0
 45110  1  0
 47111  1  0
 47112  1  0
 47113  1  0
 52114  1  0
 52115  1  0
 53116  1  0
 53117  1  0
 54118  1  0
 54119  1  0
 55120  1  1
 59121  1  0
 59122  1  0
 59123  1  0
 60124  1  0
 60125  1  0
 60126  1  0
M  END
$$$$
[H]N(C(=O)[C@@]([H])(N([H])C(=O)[C@@]([H])(N([H])C(=O)[C@]([H])(N([H])C(=O)[C@@]([H])(C(=O)C([H])([H])[H])C([H])([H])[H])C([H])([H])[H])C([H])([H])[H])C([H])([H])[H])[C@]([H])(C(=O)N([H])[C@]([H])(C(=O)N([H])[C@]([H])(C(=O)N([H])[C@]([H])(C(=O)N([H])[C@]([H])(C(=O)N1C([H])([H])C([H])([H])C([H])([H])[C@]1([H])C(=O)N(C([H])([H])[H])C([H])([H])[H])C([H])([H])C([H])(C([H])([H])[H])C([H])([H])[H])C([H])([H])[H])C([H])([H])[H])C([H])([H])[H])C([H])([H])[H]
     RDKit          3D

126126  0  0  0  0  0  0  0  0999 V2000
  -12.6571   -2.9940    0.4984 C   0  0  0  0  0  0  0  0  0  0  0  0
  -11.9176   -3.3681   -0.6919 C   0  0  0  0  0  0  0  0  0  0  0  0
  -11.6857   -4.9322   -0.6628 C   0  0  0  0  0  0  0  0  0  0  0  0
  -10.6496   -2.7874   -1.1278 C   0  0  0  0  0  0  0  0  0  0  0  0
  -10.3855   -1.4208   -1.4739 C   0  0  2  0  0  0  0  0  0  0  0  0
   -8.9945   -1.4164   -2.0408 N   0  0  0  0  0  0  0  0  0  0  0  0
   -7.8928   -0.8302   -1.3908 C   0  0  0  0  0  0  0  0  0  0  0  0
   -8.1035   -0.2473   -0.2927 O   0  0  0  0  0  0  0  0  0  0  0  0
   -6.5203   -0.8531   -1.8949 C   0  0  2  0  0  0  0  0  0  0  0  0
   -5.9978   -2.3233   -1.8419 C   0  0  0  0  0  0  0  0  0  0  0  0
   -5.5807   -0.0834   -1.1027 N   0  0  0  0  0  0  0  0  0  0  0  0
   -4.3703    0.3963   -1.6121 C   0  0  0  0  0  0  0  0  0  0  0  0
   -4.1161    0.1246   -2.8372 O   0  0  0  0  0  0  0  0  0  0  0  0
   -3.3576    1.1720   -0.8895 C   0  0  2  0  0  0  0  0  0  0  0  0
   -3.4279    2.6531   -1.3061 C   0  0  0  0  0  0  0  0  0  0  0  0
   -2.0217    0.7288   -1.2498 N   0  0  0  0  0  0  0  0  0  0  0  0
   -0.9301    0.6494   -0.3341 C   0  0  0  0  0  0  0  0  0  0  0  0
   -1.1030    1.0102    0.8360 O   0  0  0  0  0  0  0  0  0  0  0  0
    0.3784    0.1423   -0.7669 C   0  0  2  0  0  0  0  0  0  0  0  0
    0.3173   -1.4226   -0.7400 C   0  0  0  0  0  0  0  0  0  0  0  0
    1.4912    0.5201    0.0931 N   0  0  0  0  0  0  0  0  0  0  0  0
    2.8253    0.4744   -0.4083 C   0  0  0  0  0  0  0  0  0  0  0  0
    2.9717    0.0864   -1.6165 O   0  0  0  0  0  0  0  0  0  0  0  0
    4.0108    0.8307    0.3619 C   0  0  2  0  0  0  0  0  0  0  0  0
    4.1403    2.3290    0.5519 C   0  0  0  0  0  0  0  0  0  0  0  0
    5.2106    0.3459   -0.3303 N   0  0  0  0  0  0  0  0  0  0  0  0
    6.1831   -0.4537    0.2773 C   0  0  0  0  0  0  0  0  0  0  0  0
    6.0092   -0.7527    1.5101 O   0  0  0  0  0  0  0  0  0  0  0  0
    7.3672   -0.9656   -0.3997 C   0  0  2  0  0  0  0  0  0  0  0  0
    6.9385   -1.9594   -1.5122 C   0  0  0  0  0  0  0  0  0  0  0  0
    8.2454   -1.6882    0.5176 N   0  0  0  0  0  0  0  0  0  0  0  0
    9.6623   -1.7007    0.3167 C   0  0  0  0  0  0  0  0  0  0  0  0
   10.1038   -1.0969   -0.6774 O   0  0  0  0  0  0  0  0  0  0  0  0
   10.5617   -2.4007    1.2583 C   0  0  2  0  0  0  0  0  0  0  0  0
   10.3642   -1.8797    2.6804 C   0  0  0  0  0  0  0  0  0  0  0  0
   11.9296   -2.2750    0.8764 N   0  0  0  0  0  0  0  0  0  0  0  0
   12.5791   -1.0451    0.7015 C   0  0  0  0  0  0  0  0  0  0  0  0
   12.0409    0.0905    0.8603 O   0  0  0  0  0  0  0  0  0  0  0  0
   14.0331   -1.0178    0.2924 C   0  0  1  0  0  0  0  0  0  0  0  0
   14.2752   -1.9383   -0.8650 C   0  0  0  0  0  0  0  0  0  0  0  0
   14.4386    0.3285    0.0394 N   0  0  0  0  0  0  0  0  0  0  0  0
   15.2760    1.1420    0.8173 C   0  0  0  0  0  0  0  0  0  0  0  0
   15.7700    0.6904    1.8874 O   0  0  0  0  0  0  0  0  0  0  0  0
   15.5840    2.5214    0.3894 C   0  0  2  0  0  0  0  0  0  0  0  0
   16.3096    2.4998   -0.9464 C   0  0  0  0  0  0  0  0  0  0  0  0
   16.3636    3.2970    1.3490 C   0  0  0  0  0  0  0  0  0  0  0  0
   17.7199    2.9366    1.8530 C   0  0  0  0  0  0  0  0  0  0  0  0
   15.9110    4.3635    1.8311 O   0  0  0  0  0  0  0  0  0  0  0  0
  -10.5852   -0.2101   -0.7705 C   0  0  0  0  0  0  0  0  0  0  0  0
  -10.2976    0.8256   -1.6665 O   0  0  0  0  0  0  0  0  0  0  0  0
  -10.9382    0.3686    0.4309 N   0  0  0  0  0  0  0  0  0  0  0  0
  -11.1467   -0.0923    1.7747 C   0  0  0  0  0  0  0  0  0  0  0  0
  -10.4096    0.9760    2.6009 C   0  0  0  0  0  0  0  0  0  0  0  0
  -10.7637    2.2305    1.8477 C   0  0  0  0  0  0  0  0  0  0  0  0
  -11.3013    1.8284    0.5311 C   0  0  2  0  0  0  0  0  0  0  0  0
  -12.7958    1.9289    0.4965 C   0  0  0  0  0  0  0  0  0  0  0  0
  -13.4954    0.8700    0.3362 O   0  0  0  0  0  0  0  0  0  0  0  0
  -13.5042    3.1382    0.6299 N   0  0  0  0  0  0  0  0  0  0  0  0
  -12.8045    4.3840    0.7836 C   0  0  0  0  0  0  0  0  0  0  0  0
  -14.9428    3.1426    0.6202 C   0  0  0  0  0  0  0  0  0  0  0  0
  -13.4886   -3.7605    0.6810 H   0  0  0  0  0  0  0  0  0  0  0  0
  -13.1917   -2.0005    0.4205 H   0  0  0  0  0  0  0  0  0  0  0  0
  -12.0858   -2.9686    1.4488 H   0  0  0  0  0  0  0  0  0  0  0  0
  -12.6708   -3.2556   -1.5738 H   0  0  0  0  0  0  0  0  0  0  0  0
  -12.5355   -5.3312   -0.0930 H   0  0  0  0  0  0  0  0  0  0  0  0
  -10.7073   -5.1054   -0.1929 H   0  0  0  0  0  0  0  0  0  0  0  0
  -11.6752   -5.3043   -1.6908 H   0  0  0  0  0  0  0  0  0  0  0  0
  -10.2147   -3.4704   -1.9955 H   0  0  0  0  0  0  0  0  0  0  0  0
   -9.8853   -3.1587   -0.3120 H   0  0  0  0  0  0  0  0  0  0  0  0
  -10.9796   -1.2698   -2.5078 H   0  0  0  0  0  0  0  0  0  0  0  0
   -8.8615   -1.8736   -2.9554 H   0  0  0  0  0  0  0  0  0  0  0  0
   -6.4449   -0.5939   -2.9449 H   0  0  0  0  0  0  0  0  0  0  0  0
   -5.5396   -2.5234   -0.8612 H   0  0  0  0  0  0  0  0  0  0  0  0
   -6.8047   -2.9850   -2.1425 H   0  0  0  0  0  0  0  0  0  0  0  0
   -5.1988   -2.3668   -2.6044 H   0  0  0  0  0  0  0  0  0  0  0  0
   -5.8373    0.1117   -0.1149 H   0  0  0  0  0  0  0  0  0  0  0  0
   -3.5361    1.1374    0.1919 H   0  0  0  0  0  0  0  0  0  0  0  0
   -3.0626    3.2465   -0.4224 H   0  0  0  0  0  0  0  0  0  0  0  0
   -2.8280    2.8338   -2.2002 H   0  0  0  0  0  0  0  0  0  0  0  0
   -4.4901    2.8805   -1.4950 H   0  0  0  0  0  0  0  0  0  0  0  0
   -1.8416    0.4566   -2.2445 H   0  0  0  0  0  0  0  0  0  0  0  0
    0.5895    0.3661   -1.8098 H   0  0  0  0  0  0  0  0  0  0  0  0
   -0.7475   -1.6717   -0.8958 H   0  0  0  0  0  0  0  0  0  0  0  0
    0.9674   -1.7652   -1.5443 H   0  0  0  0  0  0  0  0  0  0  0  0
    0.6635   -1.7120    0.2895 H   0  0  0  0  0  0  0  0  0  0  0  0
    1.2973    0.8230    1.0702 H   0  0  0  0  0  0  0  0  0  0  0  0
    3.9513    0.4068    1.3804 H   0  0  0  0  0  0  0  0  0  0  0  0
    5.1381    2.5532    1.0329 H   0  0  0  0  0  0  0  0  0  0  0  0
    4.1630    2.8644   -0.4102 H   0  0  0  0  0  0  0  0  0  0  0  0
    3.4002    2.7235    1.2639 H   0  0  0  0  0  0  0  0  0  0  0  0
    5.3037    0.6355   -1.3272 H   0  0  0  0  0  0  0  0  0  0  0  0
    7.9598   -0.2200   -0.9438 H   0  0  0  0  0  0  0  0  0  0  0  0
    6.2857   -2.7550   -1.1070 H   0  0  0  0  0  0  0  0  0  0  0  0
    7.8642   -2.4331   -1.8701 H   0  0  0  0  0  0  0  0  0  0  0  0
    6.4203   -1.3475   -2.2803 H   0  0  0  0  0  0  0  0  0  0  0  0
    7.7949   -2.1800    1.3083 H   0  0  0  0  0  0  0  0  0  0  0  0
   10.2569   -3.4900    1.2943 H   0  0  0  0  0  0  0  0  0  0  0  0
    9.6687   -2.5305    3.2594 H   0  0  0  0  0  0  0  0  0  0  0  0
   10.0424   -0.8289    2.6594 H   0  0  0  0  0  0  0  0  0  0  0  0
   11.3580   -1.9335    3.1622 H   0  0  0  0  0  0  0  0  0  0  0  0
   12.4849   -3.1367    0.7165 H   0  0  0  0  0  0  0  0  0  0  0  0
   14.5637   -1.3682    1.2278 H   0  0  0  0  0  0  0  0  0  0  0  0
   13.4392   -1.9204   -1.5790 H   0  0  0  0  0  0  0  0  0  0  0  0
   15.2017   -1.6387   -1.4256 H   0  0  0  0  0  0  0  0  0  0  0  0
   14.4682   -2.9681   -0.4615 H   0  0  0  0  0  0  0  0  0  0  0  0
   14.0460    0.7488   -0.8638 H   0  0  0  0  0  0  0  0  0  0  0  0
   14.5900    3.0124    0.2091 H   0  0  0  0  0  0  0  0  0  0  0  0
   17.3833    2.3136   -0.8193 H   0  0  0  0  0  0  0  0  0  0  0  0
   15.8438    1.6893   -1.5608 H   0  0  0  0  0  0  0  0  0  0  0  0
   16.1013    3.4443   -1.4653 H   0  0  0  0  0  0  0  0  0  0  0  0
   17.9436    1.8426    1.7250 H   0  0  0  0  0  0  0  0  0  0  0  0
   18.4948    3.5039    1.2902 H   0  0  0  0  0  0  0  0  0  0  0  0
   17.7898    3.2355    2.9277 H   0  0  0  0  0  0  0  0  0  0  0  0
  -10.6648   -1.0864    1.9584 H   0  0  0  0  0  0  0  0  0  0  0  0
  -12.1802   -0.0532    2.1043 H   0  0  0  0  0  0  0  0  0  0  0  0
  -10.7490    1.0038    3.6490 H   0  0  0  0  0  0  0  0  0  0  0  0
   -9.3265    0.7421    2.5018 H   0  0  0  0  0  0  0  0  0  0  0  0
  -11.5505    2.7513    2.4574 H   0  0  0  0  0  0  0  0  0  0  0  0
   -9.8665    2.8839    1.7279 H   0  0  0  0  0  0  0  0  0  0  0  0
  -10.8508    2.3758   -0.3270 H   0  0  0  0  0  0  0  0  0  0  0  0
  -11.7374    4.3389    0.5157 H   0  0  0  0  0  0  0  0  0  0  0  0
  -13.2680    5.1393    0.0755 H   0  0  0  0  0  0  0  0  0  0  0  0
  -12.9542    4.8498    1.7868 H   0  0  0  0  0  0  0  0  0  0  0  0
  -15.2405    2.3755   -0.1608 H   0  0  0  0  0  0  0  0  0  0  0  0
  -15.3791    2.7537    1.5579 H   0  0  0  0  0  0  0  0  0  0  0  0
  -15.3949    4.0925    0.2993 H   0  0  0  0  0  0  0  0  0  0  0  0
  1  2  1  0
  2  3  1  0
  2  4  1  0
  4  5  1  0
  5  6  1  0
  6  7  1  0
  7  8  2  0
  7  9  1  0
  9 10  1  0
  9 11  1  0
 11 12  1  0
 12 13  2  0
 12 14  1  0
 14 15  1  0
 14 16  1  0
 16 17  1  0
 17 18  2  0
 17 19  1  0
 19 20  1  0
 19 21  1  0
 21 22  1  0
 22 23  2  0
 22 24  1  0
 24 25  1  0
 24 26  1  0
 26 27  1  0
 27 28  2  0
 27 29  1  0
 29 30  1  0
 29 31  1  0
 31 32  1  0
 32 33  2  0
 32 34  1  0
 34 35  1  0
 34 36  1  0
 36 37  1  0
 37 38  2  0
 37 39  1  0
 39 40  1  0
 39 41  1  0
 41 42  1  0
 42 43  2  0
 42 44  1  0
 44 45  1  0
 44 46  1  0
 46 47  1  0
 46 48  2  0
  5 49  1  0
 49 50  2  0
 49 51  1  0
 51 52  1  0
 52 53  1  0
 53 54  1  0
 54 55  1  0
 55 56  1  0
 56 57  2  0
 56 58  1  0
 58 59  1  0
 58 60  1  0
 55 51  1  0
  1 61  1  0
  1 62  1  0
  1 63  1  0
  2 64  1  0
  3 65  1  0
  3 66  1  0
  3 67  1  0
  4 68  1  0
  4 69  1  0
  5 70  1  6
  6 71  1  0
  9 72  1  6
 10 73  1  0
 10 74  1  0
 10 75  1  0
 11 76  1  0
 14 77  1  1
 15 78  1  0
 15 79  1  0
 15 80  1  0
 16 81  1  0
 19 82  1  6
 20 83  1  0
 20 84  1  0
 20 85  1  0
 21 86  1  0
 24 87  1  1
 25 88  1  0
 25 89  1  0
 25 90  1  0
 26 91  1  0
 29 92  1  6
 30 93  1  0
 30 94  1  0
 30 95  1  0
 31 96  1  0
 34 97  1  1
 35 98  1  0
 35 99  1  0
 35100  1  0
 36101  1  0
 39102  1  1
 40103  1  0
 40104  1  0
 40105  1  0
 41106  1  0
 44107  1  6
 45108  1  0
 45109  1  0
 45110  1  0
 47111  1  0
 47112  1  0
 47113  1  0
 52114  1  0
 52115  1  0
 53116  1  0
 53117  1  0
 54118  1  0
 54119  1  0
 55120  1  6
 59121  1  0
 59122  1  0
 59123  1  0
 60124  1  0
 60125  1  0
 60126  1  0
M  END
$$$$
[H]c1nc(N([H])[H])c(C(F)(F)F)nc1-c1c([H])nc([H])c(C(=O)N([H])[C@]([H])(c2c([H])c([H])c(F)c(C(F)(F)F)c2[H])C([H])([H])C([H])(C([H])([H])[H])C([H])([H])[H])c1[H]
     RDKit          3D

 56 58  0  0  0  0  0  0  0  0999 V2000
   -4.0290    3.2704   -1.0173 C   0  0  0  0  0  0  0  0  0  0  0  0
   -4.2626    1.9183   -1.6757 C   0  0  0  0  0  0  0  0  0  0  0  0
   -5.5498    1.3644   -1.2168 C   0  0  0  0  0  0  0  0  0  0  0  0
   -3.0632    1.0477   -1.6403 C   0  0  0  0  0  0  0  0  0  0  0  0
   -2.4884    0.6860   -0.3328 C   0  0  2  0  0  0  0  0  0  0  0  0
   -1.2986   -0.1724   -0.5628 N   0  0  0  0  0  0  0  0  0  0  0  0
    0.0012    0.2804   -0.2159 C   0  0  0  0  0  0  0  0  0  0  0  0
    0.1537    1.4389    0.2995 O   0  0  0  0  0  0  0  0  0  0  0  0
    1.1951   -0.5160   -0.4182 C   0  0  0  0  0  0  0  0  0  0  0  0
    1.1704   -1.8211   -0.8532 C   0  0  0  0  0  0  0  0  0  0  0  0
    2.3273   -2.5294   -1.0312 N   0  0  0  0  0  0  0  0  0  0  0  0
    3.5412   -2.0158   -0.8001 C   0  0  0  0  0  0  0  0  0  0  0  0
    3.6174   -0.7043   -0.3604 C   0  0  0  0  0  0  0  0  0  0  0  0
    2.4602    0.0181   -0.1778 C   0  0  0  0  0  0  0  0  0  0  0  0
    4.9428   -0.1493   -0.1103 C   0  0  0  0  0  0  0  0  0  0  0  0
    5.1365    1.1330    0.3252 C   0  0  0  0  0  0  0  0  0  0  0  0
    6.4027    1.5938    0.5406 N   0  0  0  0  0  0  0  0  0  0  0  0
    7.4935    0.8469    0.3462 C   0  0  0  0  0  0  0  0  0  0  0  0
    8.8099    1.3370    0.5738 N   0  0  0  0  0  0  0  0  0  0  0  0
    7.3049   -0.4598   -0.0972 C   0  0  0  0  0  0  0  0  0  0  0  0
    6.0559   -0.8979   -0.3042 N   0  0  0  0  0  0  0  0  0  0  0  0
    8.4408   -1.3684   -0.3428 C   0  0  0  0  0  0  0  0  0  0  0  0
    9.1910   -1.5690    0.7998 F   0  0  0  0  0  0  0  0  0  0  0  0
    9.2175   -0.8444   -1.3725 F   0  0  0  0  0  0  0  0  0  0  0  0
    7.9669   -2.5775   -0.7985 F   0  0  0  0  0  0  0  0  0  0  0  0
   -3.3186    0.0147    0.6509 C   0  0  0  0  0  0  0  0  0  0  0  0
   -3.8314    0.7364    1.7094 C   0  0  0  0  0  0  0  0  0  0  0  0
   -4.6144    0.1651    2.6796 C   0  0  0  0  0  0  0  0  0  0  0  0
   -4.9257   -1.1575    2.6424 C   0  0  0  0  0  0  0  0  0  0  0  0
   -5.6996   -1.7612    3.5863 F   0  0  0  0  0  0  0  0  0  0  0  0
   -4.4254   -1.9080    1.5918 C   0  0  0  0  0  0  0  0  0  0  0  0
   -3.6441   -1.3282    0.6275 C   0  0  0  0  0  0  0  0  0  0  0  0
   -4.7287   -3.3530    1.4957 C   0  0  0  0  0  0  0  0  0  0  0  0
   -4.2372   -3.9624    2.6334 F   0  0  0  0  0  0  0  0  0  0  0  0
   -6.1056   -3.5247    1.3935 F   0  0  0  0  0  0  0  0  0  0  0  0
   -4.1188   -3.9093    0.4063 F   0  0  0  0  0  0  0  0  0  0  0  0
   -2.9615    3.4590   -0.8427 H   0  0  0  0  0  0  0  0  0  0  0  0
   -4.5374    4.0592   -1.5830 H   0  0  0  0  0  0  0  0  0  0  0  0
   -4.5288    3.2715   -0.0050 H   0  0  0  0  0  0  0  0  0  0  0  0
   -4.4001    2.1887   -2.7821 H   0  0  0  0  0  0  0  0  0  0  0  0
   -5.9580    1.8102   -0.2827 H   0  0  0  0  0  0  0  0  0  0  0  0
   -6.3462    1.6356   -1.9824 H   0  0  0  0  0  0  0  0  0  0  0  0
   -5.6050    0.2458   -1.2059 H   0  0  0  0  0  0  0  0  0  0  0  0
   -2.2536    1.6430   -2.1717 H   0  0  0  0  0  0  0  0  0  0  0  0
   -3.1932    0.1790   -2.3396 H   0  0  0  0  0  0  0  0  0  0  0  0
   -2.0803    1.6210    0.1220 H   0  0  0  0  0  0  0  0  0  0  0  0
   -1.4079   -1.1161   -0.9827 H   0  0  0  0  0  0  0  0  0  0  0  0
    0.2114   -2.2788   -1.0518 H   0  0  0  0  0  0  0  0  0  0  0  0
    4.4491   -2.5963   -0.9481 H   0  0  0  0  0  0  0  0  0  0  0  0
    2.4735    1.0428    0.1628 H   0  0  0  0  0  0  0  0  0  0  0  0
    4.2833    1.7857    0.5000 H   0  0  0  0  0  0  0  0  0  0  0  0
    9.5196    1.3234   -0.1886 H   0  0  0  0  0  0  0  0  0  0  0  0
    9.1183    1.7248    1.4963 H   0  0  0  0  0  0  0  0  0  0  0  0
   -3.6191    1.8047    1.7990 H   0  0  0  0  0  0  0  0  0  0  0  0
   -4.9895    0.7846    3.4894 H   0  0  0  0  0  0  0  0  0  0  0  0
   -3.2628   -1.9094   -0.1772 H   0  0  0  0  0  0  0  0  0  0  0  0
  1  2  1  0
  2  3  1  0
  2  4  1  0
  4  5  1  0
  5  6  1  0
  6  7  1  0
  7  8  2  0
  7  9  1  0
  9 10  2  0
 10 11  1  0
 11 12  2  0
 12 13  1  0
 13 14  2  0
 13 15  1  0
 15 16  2  0
 16 17  1  0
 17 18  2  0
 18 19  1  0
 18 20  1  0
 20 21  2  0
 20 22  1  0
 22 23  1  0
 22 24  1  0
 22 25  1  0
  5 26  1  0
 26 27  2  0
 27 28  1  0
 28 29  2  0
 29 30  1  0
 29 31  1  0
 31 32  2  0
 31 33  1  0
 33 34  1  0
 33 35  1  0
 33 36  1  0
 14  9  1  0
 21 15  1  0
 32 26  1  0
  1 37  1  0
  1 38  1  0
  1 39  1  0
  2 40  1  0
  3 41  1  0
  3 42  1  0
  3 43  1  0
  4 44  1  0
  4 45  1  0
  5 46  1  1
  6 47  1  0
 10 48  1  0
 12 49  1  0
 14 50  1  0
 16 51  1  0
 19 52  1  0
 19 53  1  0
 27 54  1  0
 28 55  1  0
 32 56  1  0
M  END
$$$$
[H]c1nc(C(F)(F)F)c([H])c(-c2c([H])c([H])c3c(nc(C4([H])C([H])([H])C([H])([H])N(C(=O)[C@@]([H])(N([H])C(=O)C(C([H])([H])[H])(C([H])([H])[H])C([H])([H])[H])C([H])([H])C([H])(C([H])([H])[H])C([H])([H])[H])C([H])([H])C4([H])[H])n3[H])c2[H])c1[H]
     RDKit          3D

 75 78  0  0  0  0  0  0  0  0999 V2000
   -4.7877   -2.9340    1.4886 C   0  0  0  0  0  0  0  0  0  0  0  0
   -5.0094   -2.8307    0.0017 C   0  0  0  0  0  0  0  0  0  0  0  0
   -6.4311   -2.4219   -0.2426 C   0  0  0  0  0  0  0  0  0  0  0  0
   -4.0498   -1.9565   -0.7006 C   0  0  0  0  0  0  0  0  0  0  0  0
   -3.9586   -0.5390   -0.3335 C   0  0  2  0  0  0  0  0  0  0  0  0
   -5.1487    0.2659   -0.5313 N   0  0  0  0  0  0  0  0  0  0  0  0
   -5.5054    1.2189    0.4453 C   0  0  0  0  0  0  0  0  0  0  0  0
   -4.7533    1.3062    1.4789 O   0  0  0  0  0  0  0  0  0  0  0  0
   -6.6544    2.1154    0.3748 C   0  0  0  0  0  0  0  0  0  0  0  0
   -6.7717    3.0059    1.5983 C   0  0  0  0  0  0  0  0  0  0  0  0
   -6.4747    3.0990   -0.7967 C   0  0  0  0  0  0  0  0  0  0  0  0
   -7.9213    1.3774    0.1336 C   0  0  0  0  0  0  0  0  0  0  0  0
   -2.9023    0.2044   -1.1262 C   0  0  0  0  0  0  0  0  0  0  0  0
   -3.2151    0.7698   -2.2130 O   0  0  0  0  0  0  0  0  0  0  0  0
   -1.5820    0.2756   -0.6615 N   0  0  0  0  0  0  0  0  0  0  0  0
   -1.2068   -0.3828    0.5642 C   0  0  0  0  0  0  0  0  0  0  0  0
    0.2729   -0.0235    0.8112 C   0  0  0  0  0  0  0  0  0  0  0  0
    1.0171   -0.5649   -0.3757 C   0  0  0  0  0  0  0  0  0  0  0  0
    0.5945    0.1239   -1.6713 C   0  0  0  0  0  0  0  0  0  0  0  0
   -0.5553    1.0349   -1.3642 C   0  0  0  0  0  0  0  0  0  0  0  0
    2.4575   -0.3646   -0.1818 C   0  0  0  0  0  0  0  0  0  0  0  0
    3.4290   -1.0889   -0.7458 N   0  0  0  0  0  0  0  0  0  0  0  0
    4.5895   -0.5707   -0.2547 C   0  0  0  0  0  0  0  0  0  0  0  0
    5.8963   -0.9377   -0.4902 C   0  0  0  0  0  0  0  0  0  0  0  0
    6.9438   -0.2875    0.1208 C   0  0  0  0  0  0  0  0  0  0  0  0
    6.6192    0.7482    0.9801 C   0  0  0  0  0  0  0  0  0  0  0  0
    5.3252    1.1335    1.2306 C   0  0  0  0  0  0  0  0  0  0  0  0
    4.2963    0.4631    0.6032 C   0  0  0  0  0  0  0  0  0  0  0  0
    2.9725    0.5793    0.6363 N   0  0  0  0  0  0  0  0  0  0  0  0
    8.3518   -0.6436   -0.1198 C   0  0  0  0  0  0  0  0  0  0  0  0
    8.7379   -1.9085   -0.4252 C   0  0  0  0  0  0  0  0  0  0  0  0
   10.0881   -2.1985   -0.6166 C   0  0  0  0  0  0  0  0  0  0  0  0
   11.0062   -1.2193   -0.4973 N   0  0  0  0  0  0  0  0  0  0  0  0
   10.6426    0.0389   -0.1957 C   0  0  0  0  0  0  0  0  0  0  0  0
    9.2926    0.3495   -0.0009 C   0  0  0  0  0  0  0  0  0  0  0  0
   11.6676    1.0860   -0.0554 C   0  0  0  0  0  0  0  0  0  0  0  0
   12.5269    1.0109   -1.1359 F   0  0  0  0  0  0  0  0  0  0  0  0
   11.0446    2.3434   -0.0868 F   0  0  0  0  0  0  0  0  0  0  0  0
   12.3460    0.9378    1.1347 F   0  0  0  0  0  0  0  0  0  0  0  0
   -5.3690   -3.8230    1.8291 H   0  0  0  0  0  0  0  0  0  0  0  0
   -3.7197   -3.1621    1.7406 H   0  0  0  0  0  0  0  0  0  0  0  0
   -5.1739   -2.0651    2.0395 H   0  0  0  0  0  0  0  0  0  0  0  0
   -4.9087   -3.9023   -0.3725 H   0  0  0  0  0  0  0  0  0  0  0  0
   -6.6712   -1.6785    0.5731 H   0  0  0  0  0  0  0  0  0  0  0  0
   -6.6089   -2.0359   -1.2457 H   0  0  0  0  0  0  0  0  0  0  0  0
   -7.0719   -3.3308   -0.0166 H   0  0  0  0  0  0  0  0  0  0  0  0
   -4.2427   -2.0381   -1.8295 H   0  0  0  0  0  0  0  0  0  0  0  0
   -3.0323   -2.4314   -0.6190 H   0  0  0  0  0  0  0  0  0  0  0  0
   -3.6622   -0.4320    0.7320 H   0  0  0  0  0  0  0  0  0  0  0  0
   -5.7477    0.1519   -1.3817 H   0  0  0  0  0  0  0  0  0  0  0  0
   -7.8679    3.1522    1.7518 H   0  0  0  0  0  0  0  0  0  0  0  0
   -6.3723    2.5476    2.5190 H   0  0  0  0  0  0  0  0  0  0  0  0
   -6.2658    3.9551    1.4354 H   0  0  0  0  0  0  0  0  0  0  0  0
   -6.6685    2.5828   -1.7616 H   0  0  0  0  0  0  0  0  0  0  0  0
   -5.4346    3.4808   -0.7026 H   0  0  0  0  0  0  0  0  0  0  0  0
   -7.1708    3.9174   -0.5979 H   0  0  0  0  0  0  0  0  0  0  0  0
   -8.7324    1.7628    0.8106 H   0  0  0  0  0  0  0  0  0  0  0  0
   -7.8396    0.2972    0.2947 H   0  0  0  0  0  0  0  0  0  0  0  0
   -8.2556    1.4912   -0.9412 H   0  0  0  0  0  0  0  0  0  0  0  0
   -1.2747   -1.4580    0.4473 H   0  0  0  0  0  0  0  0  0  0  0  0
   -1.8129   -0.0540    1.4477 H   0  0  0  0  0  0  0  0  0  0  0  0
    0.4072    1.0477    0.9939 H   0  0  0  0  0  0  0  0  0  0  0  0
    0.6323   -0.6058    1.7005 H   0  0  0  0  0  0  0  0  0  0  0  0
    0.7614   -1.6476   -0.4801 H   0  0  0  0  0  0  0  0  0  0  0  0
    1.4624    0.6739   -2.1056 H   0  0  0  0  0  0  0  0  0  0  0  0
    0.2145   -0.6451   -2.4075 H   0  0  0  0  0  0  0  0  0  0  0  0
   -0.2045    1.8812   -0.7280 H   0  0  0  0  0  0  0  0  0  0  0  0
   -0.9699    1.5238   -2.2732 H   0  0  0  0  0  0  0  0  0  0  0  0
    6.1241   -1.7657   -1.1790 H   0  0  0  0  0  0  0  0  0  0  0  0
    7.4173    1.2934    1.4963 H   0  0  0  0  0  0  0  0  0  0  0  0
    5.0978    1.9460    1.9059 H   0  0  0  0  0  0  0  0  0  0  0  0
    2.4238    1.2715    1.1920 H   0  0  0  0  0  0  0  0  0  0  0  0
    7.9706   -2.6621   -0.5143 H   0  0  0  0  0  0  0  0  0  0  0  0
   10.3842   -3.2192   -0.8605 H   0  0  0  0  0  0  0  0  0  0  0  0
    8.9919    1.3650    0.2407 H   0  0  0  0  0  0  0  0  0  0  0  0
  1  2  1  0
  2  3  1  0
  2  4  1  0
  4  5  1  0
  5  6  1  0
  6  7  1  0
  7  8  2  0
  7  9  1  0
  9 10  1  0
  9 11  1  0
  9 12  1  0
  5 13  1  0
 13 14  2  0
 13 15  1  0
 15 16  1  0
 16 17  1  0
 17 18  1  0
 18 19  1  0
 19 20  1  0
 18 21  1  0
 21 22  2  0
 22 23  1  0
 23 24  2  0
 24 25  1  0
 25 26  2  0
 26 27  1  0
 27 28  2  0
 28 29  1  0
 25 30  1  0
 30 31  2  0
 31 32  1  0
 32 33  2  0
 33 34  1  0
 34 35  2  0
 34 36  1  0
 36 37  1  0
 36 38  1  0
 36 39  1  0
 20 15  1  0
 29 21  1  0
 35 30  1  0
 28 23  1  0
  1 40  1  0
  1 41  1  0
  1 42  1  0
  2 43  1  0
  3 44  1  0
  3 45  1  0
  3 46  1  0
  4 47  1  0
  4 48  1  0
  5 49  1  1
  6 50  1  0
 10 51  1  0
 10 52  1  0
 10 53  1  0
 11 54  1  0
 11 55  1  0
 11 56  1  0
 12 57  1  0
 12 58  1  0
 12 59  1  0
 16 60  1  0
 16 61  1  0
 17 62  1  0
 17 63  1  0
 18 64  1  0
 19 65  1  0
 19 66  1  0
 20 67  1  0
 20 68  1  0
 24 69  1  0
 26 70  1  0
 27 71  1  0
 29 72  1  0
 31 73  1  0
 32 74  1  0
 35 75  1  0
M  END
$$$$
[H]c1c(C(F)(F)F)c([H])c2nc(C3([H])C([H])([H])C([H])([H])N(C(=O)[C@@]([H])(N([H])C(=O)C(C([H])([H])[H])(C([H])([H])[H])C([H])([H])[H])C([H])([H])C([H])(C([H])([H])[H])C([H])([H])[H])C([H])([H])C3([H])[H])n([H])c2c1[H]
     RDKit          3D

 66 68  0  0  0  0  0  0  0  0999 V2000
   -4.2941   -3.9688    0.4295 C   0  0  0  0  0  0  0  0  0  0  0  0
   -3.0691   -3.0164    0.2277 C   0  0  0  0  0  0  0  0  0  0  0  0
   -2.7854   -3.2894   -1.2979 C   0  0  0  0  0  0  0  0  0  0  0  0
   -3.6219   -1.6456    0.3320 C   0  0  0  0  0  0  0  0  0  0  0  0
   -2.6387   -0.4840    0.2890 C   0  0  2  0  0  0  0  0  0  0  0  0
   -3.4522    0.7114    0.2013 N   0  0  0  0  0  0  0  0  0  0  0  0
   -4.1730    1.4520    1.1256 C   0  0  0  0  0  0  0  0  0  0  0  0
   -4.1716    1.1093    2.3496 O   0  0  0  0  0  0  0  0  0  0  0  0
   -4.9718    2.6580    0.7086 C   0  0  0  0  0  0  0  0  0  0  0  0
   -4.1101    3.8116    0.3206 C   0  0  0  0  0  0  0  0  0  0  0  0
   -5.9461    3.0532    1.7805 C   0  0  0  0  0  0  0  0  0  0  0  0
   -5.7854    2.3074   -0.5477 C   0  0  0  0  0  0  0  0  0  0  0  0
   -1.5250   -0.5616   -0.6125 C   0  0  0  0  0  0  0  0  0  0  0  0
   -1.7727   -0.0812   -1.8002 O   0  0  0  0  0  0  0  0  0  0  0  0
   -0.2264   -1.0673   -0.4018 N   0  0  0  0  0  0  0  0  0  0  0  0
    0.7365   -1.0727   -1.5192 C   0  0  0  0  0  0  0  0  0  0  0  0
    1.8385   -0.1276   -1.1730 C   0  0  0  0  0  0  0  0  0  0  0  0
    2.3064   -0.4222    0.2607 C   0  0  0  0  0  0  0  0  0  0  0  0
    1.8342   -1.7231    0.7252 C   0  0  0  0  0  0  0  0  0  0  0  0
    0.2768   -1.5840    0.8300 C   0  0  0  0  0  0  0  0  0  0  0  0
    3.7742   -0.2006    0.2685 C   0  0  0  0  0  0  0  0  0  0  0  0
    4.3623    1.0025   -0.0265 N   0  0  0  0  0  0  0  0  0  0  0  0
    5.6869    0.8958    0.0783 C   0  0  0  0  0  0  0  0  0  0  0  0
    6.7166    1.8362   -0.1253 C   0  0  0  0  0  0  0  0  0  0  0  0
    8.0385    1.5042    0.0381 C   0  0  0  0  0  0  0  0  0  0  0  0
    8.3473    0.2219    0.4095 C   0  0  0  0  0  0  0  0  0  0  0  0
    7.3262   -0.7142    0.6105 C   0  0  0  0  0  0  0  0  0  0  0  0
    5.9897   -0.3709    0.4434 C   0  0  0  0  0  0  0  0  0  0  0  0
    4.7976   -1.0162    0.5505 N   0  0  0  0  0  0  0  0  0  0  0  0
    9.1285    2.5134   -0.1927 C   0  0  0  0  0  0  0  0  0  0  0  0
    8.6327    3.6449   -0.8631 F   0  0  0  0  0  0  0  0  0  0  0  0
   10.1996    2.0175   -0.8761 F   0  0  0  0  0  0  0  0  0  0  0  0
    9.6110    3.0207    1.0217 F   0  0  0  0  0  0  0  0  0  0  0  0
   -5.1506   -3.4812   -0.0584 H   0  0  0  0  0  0  0  0  0  0  0  0
   -4.0363   -4.9722    0.0179 H   0  0  0  0  0  0  0  0  0  0  0  0
   -4.4307   -3.9883    1.5331 H   0  0  0  0  0  0  0  0  0  0  0  0
   -2.2969   -3.3255    0.8653 H   0  0  0  0  0  0  0  0  0  0  0  0
   -3.3635   -2.5017   -1.8516 H   0  0  0  0  0  0  0  0  0  0  0  0
   -1.7375   -3.3075   -1.5090 H   0  0  0  0  0  0  0  0  0  0  0  0
   -3.2413   -4.2535   -1.6068 H   0  0  0  0  0  0  0  0  0  0  0  0
   -4.1105   -1.5939    1.3809 H   0  0  0  0  0  0  0  0  0  0  0  0
   -4.4815   -1.4500   -0.3263 H   0  0  0  0  0  0  0  0  0  0  0  0
   -2.2543   -0.4454    1.3740 H   0  0  0  0  0  0  0  0  0  0  0  0
   -3.4795    1.0924   -0.8300 H   0  0  0  0  0  0  0  0  0  0  0  0
   -3.4286    4.1400    1.1299 H   0  0  0  0  0  0  0  0  0  0  0  0
   -4.7542    4.6768    0.0952 H   0  0  0  0  0  0  0  0  0  0  0  0
   -3.5281    3.5581   -0.6049 H   0  0  0  0  0  0  0  0  0  0  0  0
   -6.3823    2.1201    2.1769 H   0  0  0  0  0  0  0  0  0  0  0  0
   -5.4329    3.5683    2.6204 H   0  0  0  0  0  0  0  0  0  0  0  0
   -6.7337    3.7237    1.3448 H   0  0  0  0  0  0  0  0  0  0  0  0
   -6.8010    2.7446   -0.4855 H   0  0  0  0  0  0  0  0  0  0  0  0
   -5.2802    2.6528   -1.4651 H   0  0  0  0  0  0  0  0  0  0  0  0
   -5.8526    1.2069   -0.5687 H   0  0  0  0  0  0  0  0  0  0  0  0
    0.2427   -0.8134   -2.4787 H   0  0  0  0  0  0  0  0  0  0  0  0
    1.1752   -2.0768   -1.6211 H   0  0  0  0  0  0  0  0  0  0  0  0
    1.4459    0.9355   -1.2079 H   0  0  0  0  0  0  0  0  0  0  0  0
    2.6685   -0.1848   -1.9096 H   0  0  0  0  0  0  0  0  0  0  0  0
    1.7933    0.3723    0.8950 H   0  0  0  0  0  0  0  0  0  0  0  0
    2.1744   -1.9443    1.7539 H   0  0  0  0  0  0  0  0  0  0  0  0
    2.0940   -2.5838    0.0903 H   0  0  0  0  0  0  0  0  0  0  0  0
   -0.1461   -2.5181    1.1846 H   0  0  0  0  0  0  0  0  0  0  0  0
    0.1702   -0.7879    1.6276 H   0  0  0  0  0  0  0  0  0  0  0  0
    6.4834    2.8336   -0.4156 H   0  0  0  0  0  0  0  0  0  0  0  0
    9.3878   -0.0500    0.5382 H   0  0  0  0  0  0  0  0  0  0  0  0
    7.5440   -1.7404    0.9088 H   0  0  0  0  0  0  0  0  0  0  0  0
    4.6831   -2.0206    0.8051 H   0  0  0  0  0  0  0  0  0  0  0  0
  1  2  1  0
  2  3  1  0
  2  4  1  0
  4  5  1  0
  5  6  1  0
  6  7  1  0
  7  8  2  0
  7  9  1  0
  9 10  1  0
  9 11  1  0
  9 12  1  0
  5 13  1  0
 13 14  2  0
 13 15  1  0
 15 16  1  0
 16 17  1  0
 17 18  1  0
 18 19  1  0
 19 20  1  0
 18 21  1  0
 21 22  2  0
 22 23  1  0
 23 24  2  0
 24 25  1  0
 25 26  2  0
 26 27  1  0
 27 28  2  0
 28 29  1  0
 25 30  1  0
 30 31  1  0
 30 32  1  0
 30 33  1  0
 20 15  1  0
 29 21  1  0
 28 23  1  0
  1 34  1  0
  1 35  1  0
  1 36  1  0
  2 37  1  0
  3 38  1  0
  3 39  1  0
  3 40  1  0
  4 41  1  0
  4 42  1  0
  5 43  1  1
  6 44  1  0
 10 45  1  0
 10 46  1  0
 10 47  1  0
 11 48  1  0
 11 49  1  0
 11 50  1  0
 12 51  1  0
 12 52  1  0
 12 53  1  0
 16 54  1  0
 16 55  1  0
 17 56  1  0
 17 57  1  0
 18 58  1  0
 19 59  1  0
 19 60  1  0
 20 61  1  0
 20 62  1  0
 24 63  1  0
 26 64  1  0
 27 65  1  0
 29 66  1  0
M  END
$$$$
[H]c1nc(N([H])C(=O)[C@@]([H])(N([H])C(=O)c2c([H])c([H])c([H])c(C(F)(F)F)c2[H])C([H])([H])C([H])(C([H])([H])[H])C([H])([H])[H])c2c([H])c([H])n([H])c2n1
     RDKit          3D

 50 52  0  0  0  0  0  0  0  0999 V2000
   -1.3359    3.3983   -3.2554 C   0  0  0  0  0  0  0  0  0  0  0  0
   -1.1707    3.0311   -1.7988 C   0  0  0  0  0  0  0  0  0  0  0  0
   -0.5656    4.1966   -0.9833 C   0  0  0  0  0  0  0  0  0  0  0  0
   -0.1551    1.9129   -1.6951 C   0  0  0  0  0  0  0  0  0  0  0  0
    0.0791    1.5117   -0.3240 C   0  0  2  0  0  0  0  0  0  0  0  0
    1.1055    0.4567   -0.1703 N   0  0  0  0  0  0  0  0  0  0  0  0
    2.1480    0.6411    0.7735 C   0  0  0  0  0  0  0  0  0  0  0  0
    2.2076    1.6767    1.4369 O   0  0  0  0  0  0  0  0  0  0  0  0
    3.1310   -0.4194    0.9517 C   0  0  0  0  0  0  0  0  0  0  0  0
    3.0741   -1.2154    2.1243 C   0  0  0  0  0  0  0  0  0  0  0  0
    3.9376   -2.2705    2.2867 C   0  0  0  0  0  0  0  0  0  0  0  0
    4.8900   -2.6220    1.3533 C   0  0  0  0  0  0  0  0  0  0  0  0
    4.9544   -1.8321    0.1845 C   0  0  0  0  0  0  0  0  0  0  0  0
    4.0847   -0.7854    0.0415 C   0  0  0  0  0  0  0  0  0  0  0  0
    5.9878   -2.2327   -0.8086 C   0  0  0  0  0  0  0  0  0  0  0  0
    7.2419   -2.2275   -0.2433 F   0  0  0  0  0  0  0  0  0  0  0  0
    5.9397   -1.4079   -1.9322 F   0  0  0  0  0  0  0  0  0  0  0  0
    5.7187   -3.5386   -1.1919 F   0  0  0  0  0  0  0  0  0  0  0  0
   -1.0799    1.0606    0.4639 C   0  0  0  0  0  0  0  0  0  0  0  0
   -1.3243    1.6451    1.6120 O   0  0  0  0  0  0  0  0  0  0  0  0
   -1.9073    0.0267    0.1016 N   0  0  0  0  0  0  0  0  0  0  0  0
   -2.9671   -0.4608    0.9710 C   0  0  0  0  0  0  0  0  0  0  0  0
   -3.3148    0.1947    2.0946 N   0  0  0  0  0  0  0  0  0  0  0  0
   -4.3085   -0.2297    2.8994 C   0  0  0  0  0  0  0  0  0  0  0  0
   -5.0041   -1.3539    2.5965 N   0  0  0  0  0  0  0  0  0  0  0  0
   -4.7328   -2.0565    1.5216 C   0  0  0  0  0  0  0  0  0  0  0  0
   -5.2127   -3.2058    1.0316 N   0  0  0  0  0  0  0  0  0  0  0  0
   -4.5444   -3.5406   -0.0777 C   0  0  0  0  0  0  0  0  0  0  0  0
   -3.5945   -2.5435   -0.3000 C   0  0  0  0  0  0  0  0  0  0  0  0
   -3.6861   -1.5929    0.6896 C   0  0  0  0  0  0  0  0  0  0  0  0
   -0.5803    2.9114   -3.9082 H   0  0  0  0  0  0  0  0  0  0  0  0
   -2.3218    3.1721   -3.6711 H   0  0  0  0  0  0  0  0  0  0  0  0
   -1.2105    4.5231   -3.3352 H   0  0  0  0  0  0  0  0  0  0  0  0
   -2.1207    2.7899   -1.2978 H   0  0  0  0  0  0  0  0  0  0  0  0
    0.5466    4.1315   -0.9493 H   0  0  0  0  0  0  0  0  0  0  0  0
   -0.9325    5.1312   -1.4751 H   0  0  0  0  0  0  0  0  0  0  0  0
   -1.0008    4.1258    0.0289 H   0  0  0  0  0  0  0  0  0  0  0  0
   -0.4659    1.0615   -2.3585 H   0  0  0  0  0  0  0  0  0  0  0  0
    0.7969    2.2840   -2.1769 H   0  0  0  0  0  0  0  0  0  0  0  0
    0.5336    2.4150    0.2275 H   0  0  0  0  0  0  0  0  0  0  0  0
    1.0832   -0.4009   -0.7182 H   0  0  0  0  0  0  0  0  0  0  0  0
    2.3257   -0.9394    2.8567 H   0  0  0  0  0  0  0  0  0  0  0  0
    3.8833   -2.8864    3.1990 H   0  0  0  0  0  0  0  0  0  0  0  0
    5.5430   -3.4503    1.4906 H   0  0  0  0  0  0  0  0  0  0  0  0
    4.1860   -0.2064   -0.8798 H   0  0  0  0  0  0  0  0  0  0  0  0
   -1.7585   -0.4695   -0.8059 H   0  0  0  0  0  0  0  0  0  0  0  0
   -4.5872    0.2834    3.8048 H   0  0  0  0  0  0  0  0  0  0  0  0
   -5.9899   -3.7995    1.4393 H   0  0  0  0  0  0  0  0  0  0  0  0
   -4.6492   -4.4096   -0.7184 H   0  0  0  0  0  0  0  0  0  0  0  0
   -2.8771   -2.4839   -1.1057 H   0  0  0  0  0  0  0  0  0  0  0  0
  1  2  1  0
  2  3  1  0
  2  4  1  0
  4  5  1  0
  5  6  1  0
  6  7  1  0
  7  8  2  0
  7  9  1  0
  9 10  2  0
 10 11  1  0
 11 12  2  0
 12 13  1  0
 13 14  2  0
 13 15  1  0
 15 16  1  0
 15 17  1  0
 15 18  1  0
  5 19  1  0
 19 20  2  0
 19 21  1  0
 21 22  1  0
 22 23  2  0
 23 24  1  0
 24 25  2  0
 25 26  1  0
 26 27  1  0
 27 28  1  0
 28 29  2  0
 29 30  1  0
 14  9  1  0
 30 22  1  0
 30 26  2  0
  1 31  1  0
  1 32  1  0
  1 33  1  0
  2 34  1  0
  3 35  1  0
  3 36  1  0
  3 37  1  0
  4 38  1  0
  4 39  1  0
  5 40  1  1
  6 41  1  0
 10 42  1  0
 11 43  1  0
 12 44  1  0
 14 45  1  0
 21 46  1  0
 24 47  1  0
 27 48  1  0
 28 49  1  0
 29 50  1  0
M  END
$$$$
