[H]c1c([H])c(Oc2c([H])c([H])c(Cl)c([H])c2C(=O)N([H])c2c([H])c([H])n([H])c(=O)c2[H])c([H])c([H])c1F
     RDKit          3D

 37 39  0  0  0  0  0  0  0  0999 V2000
   -5.8062   -2.6640   -1.0753 F   0  0  0  0  0  0  0  0  0  0  0  0
   -4.6643   -1.9906   -0.8649 C   0  0  0  0  0  0  0  0  0  0  0  0
   -3.9699   -1.5037   -1.9494 C   0  0  0  0  0  0  0  0  0  0  0  0
   -2.7993   -0.8145   -1.7165 C   0  0  0  0  0  0  0  0  0  0  0  0
   -2.3218   -0.6098   -0.4233 C   0  0  0  0  0  0  0  0  0  0  0  0
   -1.1701    0.0653   -0.1467 O   0  0  0  0  0  0  0  0  0  0  0  0
   -1.0327    1.4104    0.0810 C   0  0  0  0  0  0  0  0  0  0  0  0
   -2.1849    2.1986    0.0296 C   0  0  0  0  0  0  0  0  0  0  0  0
   -2.1050    3.5469    0.2492 C   0  0  0  0  0  0  0  0  0  0  0  0
   -0.8866    4.1288    0.5215 C   0  0  0  0  0  0  0  0  0  0  0  0
   -0.7884    5.8707    0.8046 Cl  0  0  0  0  0  0  0  0  0  0  0  0
    0.2358    3.3467    0.5694 C   0  0  0  0  0  0  0  0  0  0  0  0
    0.1874    1.9548    0.3478 C   0  0  0  0  0  0  0  0  0  0  0  0
    1.4587    1.2285    0.4262 C   0  0  0  0  0  0  0  0  0  0  0  0
    2.5110    1.9057    0.6889 O   0  0  0  0  0  0  0  0  0  0  0  0
    1.6328   -0.1290    0.2425 N   0  0  0  0  0  0  0  0  0  0  0  0
    2.8885   -0.8143    0.3375 C   0  0  0  0  0  0  0  0  0  0  0  0
    3.9596   -0.3886    1.0610 C   0  0  0  0  0  0  0  0  0  0  0  0
    5.1408   -1.1539    1.0359 C   0  0  0  0  0  0  0  0  0  0  0  0
    5.2505   -2.2829    0.3294 N   0  0  0  0  0  0  0  0  0  0  0  0
    4.2116   -2.7322   -0.3954 C   0  0  0  0  0  0  0  0  0  0  0  0
    4.3384   -3.8020   -1.0549 O   0  0  0  0  0  0  0  0  0  0  0  0
    3.0598   -1.9944   -0.3771 C   0  0  0  0  0  0  0  0  0  0  0  0
   -3.0572   -1.1197    0.6371 C   0  0  0  0  0  0  0  0  0  0  0  0
   -4.2287   -1.8116    0.4368 C   0  0  0  0  0  0  0  0  0  0  0  0
   -4.3547   -1.6716   -2.9461 H   0  0  0  0  0  0  0  0  0  0  0  0
   -2.2335   -0.4217   -2.5388 H   0  0  0  0  0  0  0  0  0  0  0  0
   -3.1448    1.7331   -0.1860 H   0  0  0  0  0  0  0  0  0  0  0  0
   -3.0143    4.1336    0.2032 H   0  0  0  0  0  0  0  0  0  0  0  0
    1.2052    3.8241    0.7883 H   0  0  0  0  0  0  0  0  0  0  0  0
    0.8197   -0.7651    0.0161 H   0  0  0  0  0  0  0  0  0  0  0  0
    3.9700    0.4913    1.6745 H   0  0  0  0  0  0  0  0  0  0  0  0
    5.9977   -0.8093    1.6165 H   0  0  0  0  0  0  0  0  0  0  0  0
    6.1529   -2.8347    0.3322 H   0  0  0  0  0  0  0  0  0  0  0  0
    2.2264   -2.3559   -0.9597 H   0  0  0  0  0  0  0  0  0  0  0  0
   -2.6837   -0.9602    1.6572 H   0  0  0  0  0  0  0  0  0  0  0  0
   -4.8007   -2.2093    1.2772 H   0  0  0  0  0  0  0  0  0  0  0  0
  1  2  1  0
  2  3  2  0
  3  4  1  0
  4  5  2  0
  5  6  1  0
  6  7  1  0
  7  8  2  0
  8  9  1  0
  9 10  2  0
 10 11  1  0
 10 12  1  0
 12 13  2  0
 13 14  1  0
 14 15  2  0
 14 16  1  0
 16 17  1  0
 17 18  1  0
 18 19  2  0
 19 20  1  0
 20 21  1  0
 21 22  2  0
 21 23  1  0
  5 24  1  0
 24 25  2  0
 25  2  1  0
 13  7  1  0
 23 17  2  0
  3 26  1  0
  4 27  1  0
  8 28  1  0
  9 29  1  0
 12 30  1  0
 16 31  1  0
 18 32  1  0
 19 33  1  0
 20 34  1  0
 23 35  1  0
 24 36  1  0
 25 37  1  0
M  END
$$$$
[H]c1nc(N([H])C2(c3c([H])c([H])c(F)c([H])c3F)C([H])([H])C2([H])[H])nc([H])c1-c1nnc(C([H])(F)F)o1
     RDKit          3D

 37 40  0  0  0  0  0  0  0  0999 V2000
    8.2908    0.0739    1.3025 F   0  0  0  0  0  0  0  0  0  0  0  0
    7.4916   -1.0001    0.9668 C   0  0  0  0  0  0  0  0  0  0  0  0
    8.1749   -1.9539    0.2692 F   0  0  0  0  0  0  0  0  0  0  0  0
    6.3409   -0.4931    0.1315 C   0  0  0  0  0  0  0  0  0  0  0  0
    6.4296    0.1083   -1.0650 N   0  0  0  0  0  0  0  0  0  0  0  0
    5.2079    0.3947   -1.4560 N   0  0  0  0  0  0  0  0  0  0  0  0
    4.3373   -0.0167   -0.5232 C   0  0  0  0  0  0  0  0  0  0  0  0
    5.0671   -0.5504    0.4243 O   0  0  0  0  0  0  0  0  0  0  0  0
    2.8940    0.1093   -0.5671 C   0  0  0  0  0  0  0  0  0  0  0  0
    2.2287    0.6912   -1.6184 C   0  0  0  0  0  0  0  0  0  0  0  0
    0.8664    0.7797   -1.6001 N   0  0  0  0  0  0  0  0  0  0  0  0
    0.1556    0.2989   -0.5532 C   0  0  0  0  0  0  0  0  0  0  0  0
   -1.2400    0.3930   -0.5898 N   0  0  0  0  0  0  0  0  0  0  0  0
   -2.2125   -0.0202    0.3842 C   0  0  0  0  0  0  0  0  0  0  0  0
   -2.0206   -1.4420    0.8917 C   0  0  0  0  0  0  0  0  0  0  0  0
   -1.8408   -0.2250    1.7796 C   0  0  0  0  0  0  0  0  0  0  0  0
   -3.6008    0.3225    0.0047 C   0  0  0  0  0  0  0  0  0  0  0  0
   -4.5553   -0.6343   -0.1823 C   0  0  0  0  0  0  0  0  0  0  0  0
   -5.8586   -0.3131   -0.5521 C   0  0  0  0  0  0  0  0  0  0  0  0
   -6.2262    0.9852   -0.7418 C   0  0  0  0  0  0  0  0  0  0  0  0
   -7.5095    1.3257   -1.1076 F   0  0  0  0  0  0  0  0  0  0  0  0
   -5.2698    1.9760   -0.5571 C   0  0  0  0  0  0  0  0  0  0  0  0
   -3.9959    1.6388   -0.1938 C   0  0  0  0  0  0  0  0  0  0  0  0
   -3.0573    2.5906   -0.0111 F   0  0  0  0  0  0  0  0  0  0  0  0
    0.8244   -0.2515    0.4357 N   0  0  0  0  0  0  0  0  0  0  0  0
    2.1435   -0.3670    0.4767 C   0  0  0  0  0  0  0  0  0  0  0  0
    7.0401   -1.4300    1.8768 H   0  0  0  0  0  0  0  0  0  0  0  0
    2.7989    1.0667   -2.4383 H   0  0  0  0  0  0  0  0  0  0  0  0
   -1.6847    0.8402   -1.4757 H   0  0  0  0  0  0  0  0  0  0  0  0
   -1.0964   -1.9805    0.5823 H   0  0  0  0  0  0  0  0  0  0  0  0
   -2.8502   -2.1135    1.1001 H   0  0  0  0  0  0  0  0  0  0  0  0
   -0.8441    0.0145    2.1320 H   0  0  0  0  0  0  0  0  0  0  0  0
   -2.5864   -0.1928    2.6107 H   0  0  0  0  0  0  0  0  0  0  0  0
   -4.3389   -1.6968   -0.0584 H   0  0  0  0  0  0  0  0  0  0  0  0
   -6.5692   -1.0957   -0.6861 H   0  0  0  0  0  0  0  0  0  0  0  0
   -5.5968    3.0026   -0.7169 H   0  0  0  0  0  0  0  0  0  0  0  0
    2.6622   -0.8353    1.3252 H   0  0  0  0  0  0  0  0  0  0  0  0
  1  2  1  0
  2  3  1  0
  2  4  1  0
  4  5  2  0
  5  6  1  0
  6  7  2  0
  7  8  1  0
  7  9  1  0
  9 10  2  0
 10 11  1  0
 11 12  2  0
 12 13  1  0
 13 14  1  0
 14 15  1  0
 15 16  1  0
 14 17  1  0
 17 18  2  0
 18 19  1  0
 19 20  2  0
 20 21  1  0
 20 22  1  0
 22 23  2  0
 23 24  1  0
 12 25  1  0
 25 26  2  0
  8  4  1  0
 26  9  1  0
 16 14  1  0
 23 17  1  0
  2 27  1  0
 10 28  1  0
 13 29  1  0
 15 30  1  0
 15 31  1  0
 16 32  1  0
 16 33  1  0
 18 34  1  0
 19 35  1  0
 22 36  1  0
 26 37  1  0
M  END
$$$$
[H]C#C[C@@]1(O[H])C([H])([H])C([H])([H])[C@]2([H])[C@]1(C([H])([H])[H])C([H])([H])C([H])([H])[C@]1([H])[C@]3(C([H])([H])[H])C(=C([H])C(=O)C([H])([H])C3([H])[H])C([H])([H])C([H])([H])[C@@]21[H]
     RDKit          3D

 51 54  0  0  0  0  0  0  0  0999 V2000
    2.2606    0.7291    1.7142 C   0  0  0  0  0  0  0  0  0  0  0  0
    2.1373    0.5205    0.2265 C   0  0  2  0  0  0  0  0  0  0  0  0
    1.3534    1.5757   -0.4514 C   0  0  0  0  0  0  0  0  0  0  0  0
   -0.0137    1.5900    0.2476 C   0  0  0  0  0  0  0  0  0  0  0  0
   -0.7024    0.3021   -0.1488 C   0  0  1  0  0  0  0  0  0  0  0  0
    0.0743   -0.9220    0.2252 C   0  0  1  0  0  0  0  0  0  0  0  0
   -0.5189   -2.0522   -0.6337 C   0  0  0  0  0  0  0  0  0  0  0  0
   -1.9685   -2.2466   -0.3454 C   0  0  0  0  0  0  0  0  0  0  0  0
   -2.7442   -0.9899   -0.2208 C   0  0  0  0  0  0  0  0  0  0  0  0
   -4.0318   -1.0482   -0.6024 C   0  0  0  0  0  0  0  0  0  0  0  0
   -4.9234    0.0865   -0.5439 C   0  0  0  0  0  0  0  0  0  0  0  0
   -6.1060    0.0886   -0.9039 O   0  0  0  0  0  0  0  0  0  0  0  0
   -4.3648    1.3588   -0.0032 C   0  0  0  0  0  0  0  0  0  0  0  0
   -2.8721    1.4424   -0.2477 C   0  0  0  0  0  0  0  0  0  0  0  0
   -2.1413    0.2626    0.2973 C   0  0  2  0  0  0  0  0  0  0  0  0
   -2.2977    0.2531    1.7910 C   0  0  0  0  0  0  0  0  0  0  0  0
    1.4949   -0.8184   -0.1059 C   0  0  2  0  0  0  0  0  0  0  0  0
    2.4313   -1.7455    0.5694 C   0  0  0  0  0  0  0  0  0  0  0  0
    3.7972   -1.1164    0.2681 C   0  0  0  0  0  0  0  0  0  0  0  0
    3.4941    0.2505   -0.3277 C   0  0  1  0  0  0  0  0  0  0  0  0
    3.4080    0.0701   -1.7194 O   0  0  0  0  0  0  0  0  0  0  0  0
    4.4923    1.2423    0.0239 C   0  0  0  0  0  0  0  0  0  0  0  0
    5.3144    2.0648    0.2933 C   0  0  0  0  0  0  0  0  0  0  0  0
    2.0261    1.7950    1.9162 H   0  0  0  0  0  0  0  0  0  0  0  0
    3.3252    0.5984    2.0628 H   0  0  0  0  0  0  0  0  0  0  0  0
    1.6583    0.0483    2.3160 H   0  0  0  0  0  0  0  0  0  0  0  0
    1.1437    1.2519   -1.4920 H   0  0  0  0  0  0  0  0  0  0  0  0
    1.8197    2.5823   -0.4106 H   0  0  0  0  0  0  0  0  0  0  0  0
   -0.5556    2.4363   -0.1741 H   0  0  0  0  0  0  0  0  0  0  0  0
    0.0810    1.5875    1.3376 H   0  0  0  0  0  0  0  0  0  0  0  0
   -0.7380    0.3231   -1.2769 H   0  0  0  0  0  0  0  0  0  0  0  0
   -0.0499   -1.2285    1.2796 H   0  0  0  0  0  0  0  0  0  0  0  0
    0.0101   -2.9990   -0.4446 H   0  0  0  0  0  0  0  0  0  0  0  0
   -0.4151   -1.7048   -1.6866 H   0  0  0  0  0  0  0  0  0  0  0  0
   -2.0528   -2.7669    0.6333 H   0  0  0  0  0  0  0  0  0  0  0  0
   -2.3929   -2.8651   -1.1621 H   0  0  0  0  0  0  0  0  0  0  0  0
   -4.4473   -1.9924   -0.9797 H   0  0  0  0  0  0  0  0  0  0  0  0
   -4.5998    1.3752    1.0894 H   0  0  0  0  0  0  0  0  0  0  0  0
   -4.8327    2.2515   -0.4690 H   0  0  0  0  0  0  0  0  0  0  0  0
   -2.5384    2.3772    0.2918 H   0  0  0  0  0  0  0  0  0  0  0  0
   -2.7316    1.5637   -1.3424 H   0  0  0  0  0  0  0  0  0  0  0  0
   -1.5478   -0.3181    2.3280 H   0  0  0  0  0  0  0  0  0  0  0  0
   -2.3604    1.2746    2.2240 H   0  0  0  0  0  0  0  0  0  0  0  0
   -3.2962   -0.2154    2.0094 H   0  0  0  0  0  0  0  0  0  0  0  0
    1.6252   -0.9425   -1.2137 H   0  0  0  0  0  0  0  0  0  0  0  0
    2.3857   -2.7480    0.1056 H   0  0  0  0  0  0  0  0  0  0  0  0
    2.2634   -1.8437    1.6566 H   0  0  0  0  0  0  0  0  0  0  0  0
    4.3506   -1.7561   -0.4561 H   0  0  0  0  0  0  0  0  0  0  0  0
    4.3813   -1.0184    1.2070 H   0  0  0  0  0  0  0  0  0  0  0  0
    3.8607   -0.7523   -1.9856 H   0  0  0  0  0  0  0  0  0  0  0  0
    6.0542    2.7886    0.5190 H   0  0  0  0  0  0  0  0  0  0  0  0
  2  1  1  1
  2  3  1  0
  3  4  1  0
  4  5  1  0
  5  6  1  0
  6  7  1  0
  7  8  1  0
  8  9  1  0
  9 10  2  0
 10 11  1  0
 11 12  2  0
 11 13  1  0
 13 14  1  0
 14 15  1  0
 15 16  1  1
  6 17  1  0
 17 18  1  0
 18 19  1  0
 19 20  1  0
 20 21  1  0
 20 22  1  6
 22 23  3  0
 17  2  1  0
 20  2  1  0
 15  5  1  0
 15  9  1  0
  1 24  1  0
  1 25  1  0
  1 26  1  0
  3 27  1  0
  3 28  1  0
  4 29  1  0
  4 30  1  0
  5 31  1  6
  6 32  1  1
  7 33  1  0
  7 34  1  0
  8 35  1  0
  8 36  1  0
 10 37  1  0
 13 38  1  0
 13 39  1  0
 14 40  1  0
 14 41  1  0
 16 42  1  0
 16 43  1  0
 16 44  1  0
 17 45  1  6
 18 46  1  0
 18 47  1  0
 19 48  1  0
 19 49  1  0
 21 50  1  0
 23 51  1  0
M  END
$$$$
[H]Oc1c([H])c([H])c2c(c1[H])C([H])([H])C([H])([H])[C@]1([H])[C@]2([H])C([H])([H])C([H])([H])[C@]2(C([H])([H])[H])[C@](O[H])(c3c([H])c([H])c(Cl)c([H])c3[H])C([H])([H])C([H])([H])[C@]21[H]
     RDKit          3D

 54 58  0  0  0  0  0  0  0  0999 V2000
   -0.0978   -2.3660    0.0319 C   0  0  0  0  0  0  0  0  0  0  0  0
   -0.9527   -1.1265   -0.1013 C   0  0  2  0  0  0  0  0  0  0  0  0
   -0.7680   -0.5243   -1.4535 C   0  0  0  0  0  0  0  0  0  0  0  0
    0.7530   -0.4862   -1.6568 C   0  0  0  0  0  0  0  0  0  0  0  0
    1.3487    0.4066   -0.6619 C   0  0  1  0  0  0  0  0  0  0  0  0
    0.9076    0.2503    0.7716 C   0  0  1  0  0  0  0  0  0  0  0  0
    1.2133    1.5612    1.4616 C   0  0  0  0  0  0  0  0  0  0  0  0
    2.5186    2.1789    1.0699 C   0  0  0  0  0  0  0  0  0  0  0  0
    3.3921    1.2846    0.2656 C   0  0  0  0  0  0  0  0  0  0  0  0
    4.7909    1.3555    0.4032 C   0  0  0  0  0  0  0  0  0  0  0  0
    5.5382    0.4941   -0.3771 C   0  0  0  0  0  0  0  0  0  0  0  0
    6.9342    0.5251   -0.2761 O   0  0  0  0  0  0  0  0  0  0  0  0
    5.0045   -0.4095   -1.2634 C   0  0  0  0  0  0  0  0  0  0  0  0
    3.6111   -0.4340   -1.3574 C   0  0  0  0  0  0  0  0  0  0  0  0
    2.8207    0.3962   -0.6073 C   0  0  0  0  0  0  0  0  0  0  0  0
   -0.5350   -0.0450    0.9020 C   0  0  2  0  0  0  0  0  0  0  0  0
   -0.9681   -0.6369    2.1817 C   0  0  0  0  0  0  0  0  0  0  0  0
   -2.1554   -1.5083    1.8631 C   0  0  0  0  0  0  0  0  0  0  0  0
   -2.3387   -1.4032    0.3442 C   0  0  2  0  0  0  0  0  0  0  0  0
   -2.7550   -2.6859   -0.0575 O   0  0  0  0  0  0  0  0  0  0  0  0
   -3.3222   -0.3767   -0.0022 C   0  0  0  0  0  0  0  0  0  0  0  0
   -3.7317    0.6192    0.8525 C   0  0  0  0  0  0  0  0  0  0  0  0
   -4.6616    1.5582    0.4690 C   0  0  0  0  0  0  0  0  0  0  0  0
   -5.2137    1.5330   -0.7798 C   0  0  0  0  0  0  0  0  0  0  0  0
   -6.3846    2.7547   -1.2154 Cl  0  0  0  0  0  0  0  0  0  0  0  0
   -4.8196    0.5428   -1.6597 C   0  0  0  0  0  0  0  0  0  0  0  0
   -3.8947   -0.3798   -1.2608 C   0  0  0  0  0  0  0  0  0  0  0  0
    0.9575   -2.1774    0.2270 H   0  0  0  0  0  0  0  0  0  0  0  0
   -0.4722   -3.0838    0.7918 H   0  0  0  0  0  0  0  0  0  0  0  0
   -0.1991   -2.9050   -0.9535 H   0  0  0  0  0  0  0  0  0  0  0  0
   -1.2706   -1.0334   -2.2714 H   0  0  0  0  0  0  0  0  0  0  0  0
   -1.0656    0.5677   -1.3711 H   0  0  0  0  0  0  0  0  0  0  0  0
    1.1046   -1.5046   -1.7030 H   0  0  0  0  0  0  0  0  0  0  0  0
    0.8843   -0.0430   -2.6666 H   0  0  0  0  0  0  0  0  0  0  0  0
    1.0627    1.4636   -0.9455 H   0  0  0  0  0  0  0  0  0  0  0  0
    1.5747   -0.5311    1.2299 H   0  0  0  0  0  0  0  0  0  0  0  0
    0.4063    2.2738    1.1143 H   0  0  0  0  0  0  0  0  0  0  0  0
    1.0807    1.4901    2.5628 H   0  0  0  0  0  0  0  0  0  0  0  0
    3.0643    2.5200    1.9896 H   0  0  0  0  0  0  0  0  0  0  0  0
    2.3811    3.1204    0.4694 H   0  0  0  0  0  0  0  0  0  0  0  0
    5.2111    2.0716    1.1017 H   0  0  0  0  0  0  0  0  0  0  0  0
    7.4161    1.1719   -0.9068 H   0  0  0  0  0  0  0  0  0  0  0  0
    5.6475   -1.0574   -1.8394 H   0  0  0  0  0  0  0  0  0  0  0  0
    3.2032   -1.1466   -2.0575 H   0  0  0  0  0  0  0  0  0  0  0  0
   -1.0918    0.8748    0.5873 H   0  0  0  0  0  0  0  0  0  0  0  0
   -1.2442    0.1671    2.9403 H   0  0  0  0  0  0  0  0  0  0  0  0
   -0.1483   -1.1905    2.6665 H   0  0  0  0  0  0  0  0  0  0  0  0
   -1.9083   -2.5667    2.1543 H   0  0  0  0  0  0  0  0  0  0  0  0
   -3.0683   -1.2596    2.4138 H   0  0  0  0  0  0  0  0  0  0  0  0
   -2.5392   -2.7542   -1.0346 H   0  0  0  0  0  0  0  0  0  0  0  0
   -3.3341    0.6865    1.8348 H   0  0  0  0  0  0  0  0  0  0  0  0
   -4.9743    2.3447    1.1715 H   0  0  0  0  0  0  0  0  0  0  0  0
   -5.2852    0.5686   -2.6404 H   0  0  0  0  0  0  0  0  0  0  0  0
   -3.6267   -1.1456   -1.9832 H   0  0  0  0  0  0  0  0  0  0  0  0
  2  1  1  6
  2  3  1  0
  3  4  1  0
  4  5  1  0
  5  6  1  0
  6  7  1  0
  7  8  1  0
  8  9  1  0
  9 10  2  0
 10 11  1  0
 11 12  1  0
 11 13  2  0
 13 14  1  0
 14 15  2  0
  6 16  1  0
 16 17  1  0
 17 18  1  0
 18 19  1  0
 19 20  1  6
 19 21  1  0
 21 22  2  0
 22 23  1  0
 23 24  2  0
 24 25  1  0
 24 26  1  0
 26 27  2  0
 16  2  1  0
 27 21  1  0
 19  2  1  0
 15  5  1  0
 15  9  1  0
  1 28  1  0
  1 29  1  0
  1 30  1  0
  3 31  1  0
  3 32  1  0
  4 33  1  0
  4 34  1  0
  5 35  1  6
  6 36  1  1
  7 37  1  0
  7 38  1  0
  8 39  1  0
  8 40  1  0
 10 41  1  0
 12 42  1  0
 13 43  1  0
 14 44  1  0
 16 45  1  6
 17 46  1  0
 17 47  1  0
 18 48  1  0
 18 49  1  0
 20 50  1  0
 22 51  1  0
 23 52  1  0
 26 53  1  0
 27 54  1  0
M  END
$$$$
[H]OC(=O)C([H])([H])[C@@]([H])(C(=O)N([H])[C@]([H])(C(=O)N([H])[C@]([H])(C(=O)O[H])C([H])([H])C([H])([H])C([H])([H])C([H])([H])N([H])[H])C([H])([H])C([H])(C([H])([H])[H])C([H])([H])[H])N([H])C(=O)OC([H])([H])c1c([H])c([H])c([H])c([H])c1[H]
     RDKit          3D

 72 72  0  0  0  0  0  0  0  0999 V2000
    1.7210    1.8407    2.9537 C   0  0  0  0  0  0  0  0  0  0  0  0
    0.4766    2.2435    2.1643 C   0  0  0  0  0  0  0  0  0  0  0  0
   -0.7799    1.9678    2.9200 C   0  0  0  0  0  0  0  0  0  0  0  0
    0.5176    1.8276    0.7544 C   0  0  0  0  0  0  0  0  0  0  0  0
    0.6329    0.4028    0.3930 C   0  0  2  0  0  0  0  0  0  0  0  0
   -0.4950   -0.3856    0.9191 N   0  0  0  0  0  0  0  0  0  0  0  0
   -1.4689   -0.9496    0.0967 C   0  0  0  0  0  0  0  0  0  0  0  0
   -1.3681   -0.7692   -1.1876 O   0  0  0  0  0  0  0  0  0  0  0  0
   -2.6147   -1.7333    0.5653 C   0  0  2  0  0  0  0  0  0  0  0  0
   -2.3188   -2.9936    1.2991 C   0  0  0  0  0  0  0  0  0  0  0  0
   -1.5496   -2.8401    2.5329 C   0  0  0  0  0  0  0  0  0  0  0  0
   -2.1162   -2.2404    3.6582 O   0  0  0  0  0  0  0  0  0  0  0  0
   -0.3609   -3.2292    2.6523 O   0  0  0  0  0  0  0  0  0  0  0  0
   -3.5264   -2.0252   -0.5622 N   0  0  0  0  0  0  0  0  0  0  0  0
   -4.8480   -1.5479   -0.5719 C   0  0  0  0  0  0  0  0  0  0  0  0
   -5.2650   -0.8662    0.3863 O   0  0  0  0  0  0  0  0  0  0  0  0
   -5.6783   -1.8301   -1.6314 O   0  0  0  0  0  0  0  0  0  0  0  0
   -6.9999   -1.4149   -1.7536 C   0  0  0  0  0  0  0  0  0  0  0  0
   -7.1921    0.0339   -1.7644 C   0  0  0  0  0  0  0  0  0  0  0  0
   -6.1741    0.9344   -1.9587 C   0  0  0  0  0  0  0  0  0  0  0  0
   -6.4303    2.2883   -1.9529 C   0  0  0  0  0  0  0  0  0  0  0  0
   -7.6928    2.7849   -1.7559 C   0  0  0  0  0  0  0  0  0  0  0  0
   -8.7038    1.8779   -1.5625 C   0  0  0  0  0  0  0  0  0  0  0  0
   -8.4713    0.5276   -1.5645 C   0  0  0  0  0  0  0  0  0  0  0  0
    1.9044   -0.2615    0.6053 C   0  0  0  0  0  0  0  0  0  0  0  0
    2.0009   -1.3712    1.1823 O   0  0  0  0  0  0  0  0  0  0  0  0
    3.1335    0.2991    0.1730 N   0  0  0  0  0  0  0  0  0  0  0  0
    4.4400   -0.3703    0.3851 C   0  0  1  0  0  0  0  0  0  0  0  0
    4.8858   -0.7375   -0.9702 C   0  0  0  0  0  0  0  0  0  0  0  0
    6.1382   -1.4327   -1.2352 C   0  0  0  0  0  0  0  0  0  0  0  0
    7.4377   -0.8140   -0.9200 C   0  0  0  0  0  0  0  0  0  0  0  0
    7.6853    0.4975   -1.6334 C   0  0  0  0  0  0  0  0  0  0  0  0
    7.6634    0.3365   -3.0751 N   0  0  0  0  0  0  0  0  0  0  0  0
    5.2883    0.5074    1.1966 C   0  0  0  0  0  0  0  0  0  0  0  0
    6.1374    0.1282    2.2199 O   0  0  0  0  0  0  0  0  0  0  0  0
    5.2496    1.7622    0.9526 O   0  0  0  0  0  0  0  0  0  0  0  0
    1.7668    0.7482    3.1335 H   0  0  0  0  0  0  0  0  0  0  0  0
    2.6203    2.2501    2.4494 H   0  0  0  0  0  0  0  0  0  0  0  0
    1.7195    2.3051    3.9643 H   0  0  0  0  0  0  0  0  0  0  0  0
    0.5576    3.3790    2.1390 H   0  0  0  0  0  0  0  0  0  0  0  0
   -1.5966    1.6544    2.2180 H   0  0  0  0  0  0  0  0  0  0  0  0
   -1.1825    2.8524    3.4576 H   0  0  0  0  0  0  0  0  0  0  0  0
   -0.6424    1.1866    3.7243 H   0  0  0  0  0  0  0  0  0  0  0  0
    1.3259    2.4347    0.2482 H   0  0  0  0  0  0  0  0  0  0  0  0
   -0.4247    2.2173    0.2643 H   0  0  0  0  0  0  0  0  0  0  0  0
    0.4668    0.3590   -0.7316 H   0  0  0  0  0  0  0  0  0  0  0  0
   -0.5376   -0.4921    1.9484 H   0  0  0  0  0  0  0  0  0  0  0  0
   -3.2075   -1.0893    1.2560 H   0  0  0  0  0  0  0  0  0  0  0  0
   -3.2367   -3.5937    1.5044 H   0  0  0  0  0  0  0  0  0  0  0  0
   -1.7062   -3.6337    0.5842 H   0  0  0  0  0  0  0  0  0  0  0  0
   -2.8317   -1.5370    3.6188 H   0  0  0  0  0  0  0  0  0  0  0  0
   -3.1854   -2.5943   -1.3658 H   0  0  0  0  0  0  0  0  0  0  0  0
   -7.3978   -1.8672   -2.6988 H   0  0  0  0  0  0  0  0  0  0  0  0
   -7.5782   -1.9228   -0.9416 H   0  0  0  0  0  0  0  0  0  0  0  0
   -5.1743    0.5854   -2.1193 H   0  0  0  0  0  0  0  0  0  0  0  0
   -5.6178    2.9929   -2.1075 H   0  0  0  0  0  0  0  0  0  0  0  0
   -7.9093    3.8607   -1.7491 H   0  0  0  0  0  0  0  0  0  0  0  0
   -9.7047    2.2648   -1.4059 H   0  0  0  0  0  0  0  0  0  0  0  0
   -9.2940   -0.1833   -1.4084 H   0  0  0  0  0  0  0  0  0  0  0  0
    3.1628    1.2038   -0.3106 H   0  0  0  0  0  0  0  0  0  0  0  0
    4.2707   -1.3212    0.9552 H   0  0  0  0  0  0  0  0  0  0  0  0
    4.8013    0.2079   -1.6255 H   0  0  0  0  0  0  0  0  0  0  0  0
    4.0385   -1.3602   -1.4345 H   0  0  0  0  0  0  0  0  0  0  0  0
    6.0958   -2.4441   -0.7404 H   0  0  0  0  0  0  0  0  0  0  0  0
    6.1931   -1.7259   -2.3407 H   0  0  0  0  0  0  0  0  0  0  0  0
    7.6617   -0.6947    0.1302 H   0  0  0  0  0  0  0  0  0  0  0  0
    8.2283   -1.5142   -1.3415 H   0  0  0  0  0  0  0  0  0  0  0  0
    7.0143    1.3092   -1.2944 H   0  0  0  0  0  0  0  0  0  0  0  0
    8.7164    0.8102   -1.3675 H   0  0  0  0  0  0  0  0  0  0  0  0
    8.5184    0.6777   -3.5379 H   0  0  0  0  0  0  0  0  0  0  0  0
    6.8242    0.8276   -3.5050 H   0  0  0  0  0  0  0  0  0  0  0  0
    5.9865   -0.6013    2.8747 H   0  0  0  0  0  0  0  0  0  0  0  0
  1  2  1  0
  2  3  1  0
  2  4  1  0
  4  5  1  0
  5  6  1  0
  6  7  1  0
  7  8  2  0
  7  9  1  0
  9 10  1  0
 10 11  1  0
 11 12  1  0
 11 13  2  0
  9 14  1  0
 14 15  1  0
 15 16  2  0
 15 17  1  0
 17 18  1  0
 18 19  1  0
 19 20  2  0
 20 21  1  0
 21 22  2  0
 22 23  1  0
 23 24  2  0
  5 25  1  0
 25 26  2  0
 25 27  1  0
 27 28  1  0
 28 29  1  0
 29 30  1  0
 30 31  1  0
 31 32  1  0
 32 33  1  0
 28 34  1  0
 34 35  1  0
 34 36  2  0
 24 19  1  0
  1 37  1  0
  1 38  1  0
  1 39  1  0
  2 40  1  0
  3 41  1  0
  3 42  1  0
  3 43  1  0
  4 44  1  0
  4 45  1  0
  5 46  1  6
  6 47  1  0
  9 48  1  1
 10 49  1  0
 10 50  1  0
 12 51  1  0
 14 52  1  0
 18 53  1  0
 18 54  1  0
 20 55  1  0
 21 56  1  0
 22 57  1  0
 23 58  1  0
 24 59  1  0
 27 60  1  0
 28 61  1  1
 29 62  1  0
 29 63  1  0
 30 64  1  0
 30 65  1  0
 31 66  1  0
 31 67  1  0
 32 68  1  0
 32 69  1  0
 33 70  1  0
 33 71  1  0
 35 72  1  0
M  END
$$$$
[H]OC(=O)[C@@]([H])(N([H])C(=O)[C@@]([H])(N([H])C(=O)C([H])([H])[H])C([H])([H])C([H])(C([H])([H])[H])C([H])([H])[H])C([H])([H])c1c([H])c([H])c([H])c([H])c1[H]
     RDKit          3D

 47 47  0  0  0  0  0  0  0  0999 V2000
   -2.8825   -2.2128   -1.5437 C   0  0  0  0  0  0  0  0  0  0  0  0
   -2.5435   -0.7959   -1.9949 C   0  0  0  0  0  0  0  0  0  0  0  0
   -3.3845   -0.5699   -3.2685 C   0  0  0  0  0  0  0  0  0  0  0  0
   -2.9643    0.2327   -1.0243 C   0  0  0  0  0  0  0  0  0  0  0  0
   -2.3567    0.1562    0.3592 C   0  0  2  0  0  0  0  0  0  0  0  0
   -3.0069    1.2860    1.0699 N   0  0  0  0  0  0  0  0  0  0  0  0
   -3.7774    1.0737    2.2283 C   0  0  0  0  0  0  0  0  0  0  0  0
   -4.3979    2.2501    2.8864 C   0  0  0  0  0  0  0  0  0  0  0  0
   -3.9492   -0.0730    2.7113 O   0  0  0  0  0  0  0  0  0  0  0  0
   -0.9162    0.5029    0.3279 C   0  0  0  0  0  0  0  0  0  0  0  0
   -0.6169    1.6737    0.7844 O   0  0  0  0  0  0  0  0  0  0  0  0
    0.1148   -0.3369   -0.1498 N   0  0  0  0  0  0  0  0  0  0  0  0
    1.5211    0.1068   -0.1393 C   0  0  1  0  0  0  0  0  0  0  0  0
    2.2610   -0.7609    0.8154 C   0  0  0  0  0  0  0  0  0  0  0  0
    3.6963   -0.4779    0.9736 C   0  0  0  0  0  0  0  0  0  0  0  0
    4.6739   -1.0984    0.2448 C   0  0  0  0  0  0  0  0  0  0  0  0
    6.0197   -0.8332    0.3965 C   0  0  0  0  0  0  0  0  0  0  0  0
    6.3850    0.1004    1.3265 C   0  0  0  0  0  0  0  0  0  0  0  0
    5.4564    0.7682    2.0996 C   0  0  0  0  0  0  0  0  0  0  0  0
    4.1329    0.4670    1.9087 C   0  0  0  0  0  0  0  0  0  0  0  0
    2.0533    0.2037   -1.4956 C   0  0  0  0  0  0  0  0  0  0  0  0
    3.3213    0.6377   -1.8284 O   0  0  0  0  0  0  0  0  0  0  0  0
    1.3316   -0.1250   -2.5058 O   0  0  0  0  0  0  0  0  0  0  0  0
   -2.9565   -2.8963   -2.4321 H   0  0  0  0  0  0  0  0  0  0  0  0
   -3.8759   -2.2400   -1.0667 H   0  0  0  0  0  0  0  0  0  0  0  0
   -2.0829   -2.5573   -0.8747 H   0  0  0  0  0  0  0  0  0  0  0  0
   -1.4983   -0.6799   -2.2938 H   0  0  0  0  0  0  0  0  0  0  0  0
   -3.4864   -1.5453   -3.7854 H   0  0  0  0  0  0  0  0  0  0  0  0
   -4.3933   -0.2108   -3.0055 H   0  0  0  0  0  0  0  0  0  0  0  0
   -2.8872    0.1199   -3.9593 H   0  0  0  0  0  0  0  0  0  0  0  0
   -4.0835    0.2374   -0.9650 H   0  0  0  0  0  0  0  0  0  0  0  0
   -2.6985    1.2308   -1.4346 H   0  0  0  0  0  0  0  0  0  0  0  0
   -2.5758   -0.7870    0.8771 H   0  0  0  0  0  0  0  0  0  0  0  0
   -2.8557    2.2195    0.6608 H   0  0  0  0  0  0  0  0  0  0  0  0
   -4.9494    1.9334    3.7989 H   0  0  0  0  0  0  0  0  0  0  0  0
   -5.0873    2.6991    2.1256 H   0  0  0  0  0  0  0  0  0  0  0  0
   -3.5955    2.9730    3.1194 H   0  0  0  0  0  0  0  0  0  0  0  0
   -0.1199   -1.2755   -0.4982 H   0  0  0  0  0  0  0  0  0  0  0  0
    1.5219    1.1424    0.2880 H   0  0  0  0  0  0  0  0  0  0  0  0
    2.1822   -1.8482    0.5742 H   0  0  0  0  0  0  0  0  0  0  0  0
    1.7332   -0.6422    1.8118 H   0  0  0  0  0  0  0  0  0  0  0  0
    4.3292   -1.8403   -0.4899 H   0  0  0  0  0  0  0  0  0  0  0  0
    6.7153   -1.3736   -0.2244 H   0  0  0  0  0  0  0  0  0  0  0  0
    7.4277    0.3347    1.4742 H   0  0  0  0  0  0  0  0  0  0  0  0
    5.8131    1.4949    2.8177 H   0  0  0  0  0  0  0  0  0  0  0  0
    3.4027    0.9913    2.5155 H   0  0  0  0  0  0  0  0  0  0  0  0
    3.8498    0.3449   -2.6246 H   0  0  0  0  0  0  0  0  0  0  0  0
  1  2  1  0
  2  3  1  0
  2  4  1  0
  4  5  1  0
  5  6  1  0
  6  7  1  0
  7  8  1  0
  7  9  2  0
  5 10  1  0
 10 11  2  0
 10 12  1  0
 12 13  1  0
 13 14  1  0
 14 15  1  0
 15 16  2  0
 16 17  1  0
 17 18  2  0
 18 19  1  0
 19 20  2  0
 13 21  1  0
 21 22  1  0
 21 23  2  0
 20 15  1  0
  1 24  1  0
  1 25  1  0
  1 26  1  0
  2 27  1  0
  3 28  1  0
  3 29  1  0
  3 30  1  0
  4 31  1  0
  4 32  1  0
  5 33  1  1
  6 34  1  0
  8 35  1  0
  8 36  1  0
  8 37  1  0
 12 38  1  0
 13 39  1  1
 14 40  1  0
 14 41  1  0
 16 42  1  0
 17 43  1  0
 18 44  1  0
 19 45  1  0
 20 46  1  0
 22 47  1  0
M  END
$$$$
[H]c1c([H])c([H])c(C([H])([H])OC(=O)N([H])[C@]([H])(C(=O)N2C([H])([H])C([H])([H])C([H])([H])[C@@]2([H])C(=O)N([H])[C@]([H])(C(=O)N2C([H])([H])C([H])([H])C([H])([H])[C@@]2([H])C(=O)N([H])[C@]([H])(C(=O)N([H])[H])C([H])([H])c2c([H])c([H])c([H])c([H])c2[H])C([H])([H])[H])C([H])([H])c2c([H])c([H])c([H])c([H])c2[H])c([H])c1[H]
     RDKit          3D

 98102  0  0  0  0  0  0  0  0999 V2000
    2.9245   -1.3124    2.1674 C   0  0  0  0  0  0  0  0  0  0  0  0
    2.0295   -0.1157    1.9382 C   0  0  2  0  0  0  0  0  0  0  0  0
    0.8821   -0.4778    1.1026 N   0  0  0  0  0  0  0  0  0  0  0  0
   -0.4541   -0.3148    1.5059 C   0  0  0  0  0  0  0  0  0  0  0  0
   -0.6918    0.1164    2.6518 O   0  0  0  0  0  0  0  0  0  0  0  0
   -1.5711   -0.6523    0.5431 C   0  0  2  0  0  0  0  0  0  0  0  0
   -1.1906    0.0090   -0.8187 C   0  0  0  0  0  0  0  0  0  0  0  0
   -1.5095    1.4565   -0.5786 C   0  0  0  0  0  0  0  0  0  0  0  0
   -2.2709    1.5392    0.7085 C   0  0  0  0  0  0  0  0  0  0  0  0
   -2.7565    0.0989    0.8625 N   0  0  0  0  0  0  0  0  0  0  0  0
   -4.0678   -0.1573    1.1291 C   0  0  0  0  0  0  0  0  0  0  0  0
   -4.7882    0.9281    1.4772 O   0  0  0  0  0  0  0  0  0  0  0  0
   -4.9292   -1.3621    1.1149 C   0  0  2  0  0  0  0  0  0  0  0  0
   -4.4293   -2.5263    0.3236 C   0  0  0  0  0  0  0  0  0  0  0  0
   -5.3818   -3.6853    0.3671 C   0  0  0  0  0  0  0  0  0  0  0  0
   -6.4166   -3.8337   -0.5562 C   0  0  0  0  0  0  0  0  0  0  0  0
   -7.2682   -4.8908   -0.4544 C   0  0  0  0  0  0  0  0  0  0  0  0
   -7.1702   -5.8606    0.5330 C   0  0  0  0  0  0  0  0  0  0  0  0
   -6.1239   -5.7158    1.4542 C   0  0  0  0  0  0  0  0  0  0  0  0
   -5.2754   -4.6423    1.3377 C   0  0  0  0  0  0  0  0  0  0  0  0
   -6.1532   -0.8528    0.4035 N   0  0  0  0  0  0  0  0  0  0  0  0
   -7.2244   -0.4327   -0.1840 C   0  0  0  0  0  0  0  0  0  0  0  0
   -8.4706   -0.6123    0.0621 O   0  0  0  0  0  0  0  0  0  0  0  0
   -7.0694    0.4003   -1.3352 O   0  0  0  0  0  0  0  0  0  0  0  0
   -7.8998    1.0043   -2.1846 C   0  0  0  0  0  0  0  0  0  0  0  0
   -8.6281    2.2370   -1.6997 C   0  0  0  0  0  0  0  0  0  0  0  0
   -8.3226    2.8113   -0.5048 C   0  0  0  0  0  0  0  0  0  0  0  0
   -8.9127    4.0285   -0.1170 C   0  0  0  0  0  0  0  0  0  0  0  0
   -9.8101    4.6524   -0.9516 C   0  0  0  0  0  0  0  0  0  0  0  0
  -10.1157    4.0785   -2.1454 C   0  0  0  0  0  0  0  0  0  0  0  0
   -9.5240    2.8419   -2.5444 C   0  0  0  0  0  0  0  0  0  0  0  0
    2.7567    1.0312    1.3131 C   0  0  0  0  0  0  0  0  0  0  0  0
    2.1843    1.4778    0.2351 O   0  0  0  0  0  0  0  0  0  0  0  0
    3.9370    1.6062    1.7811 N   0  0  0  0  0  0  0  0  0  0  0  0
    4.6813    1.2910    2.9728 C   0  0  0  0  0  0  0  0  0  0  0  0
    5.6144    2.4802    3.1935 C   0  0  0  0  0  0  0  0  0  0  0  0
    5.6353    3.2853    1.9149 C   0  0  0  0  0  0  0  0  0  0  0  0
    4.6900    2.6334    1.0004 C   0  0  1  0  0  0  0  0  0  0  0  0
    5.4416    1.7611   -0.0105 C   0  0  0  0  0  0  0  0  0  0  0  0
    4.9296    0.6417   -0.2632 O   0  0  0  0  0  0  0  0  0  0  0  0
    6.6116    2.2126   -0.5686 N   0  0  0  0  0  0  0  0  0  0  0  0
    7.4114    1.3567   -1.4991 C   0  0  1  0  0  0  0  0  0  0  0  0
    7.7933    0.1576   -0.6839 C   0  0  0  0  0  0  0  0  0  0  0  0
    8.6198   -0.8561   -1.3377 C   0  0  0  0  0  0  0  0  0  0  0  0
    9.9877   -0.7505   -1.2983 C   0  0  0  0  0  0  0  0  0  0  0  0
   10.8128   -1.6943   -1.8344 C   0  0  0  0  0  0  0  0  0  0  0  0
   10.2087   -2.7814   -2.4266 C   0  0  0  0  0  0  0  0  0  0  0  0
    8.8242   -2.9329   -2.4900 C   0  0  0  0  0  0  0  0  0  0  0  0
    8.0004   -1.9432   -1.9309 C   0  0  0  0  0  0  0  0  0  0  0  0
    6.6775    1.1377   -2.7296 C   0  0  0  0  0  0  0  0  0  0  0  0
    6.9727    0.3617   -3.8418 N   0  0  0  0  0  0  0  0  0  0  0  0
    5.5118    1.7710   -2.8642 O   0  0  0  0  0  0  0  0  0  0  0  0
    2.4420   -2.2678    1.9263 H   0  0  0  0  0  0  0  0  0  0  0  0
    3.2543   -1.3998    3.2464 H   0  0  0  0  0  0  0  0  0  0  0  0
    3.8798   -1.2170    1.5899 H   0  0  0  0  0  0  0  0  0  0  0  0
    1.6054    0.2056    2.9292 H   0  0  0  0  0  0  0  0  0  0  0  0
    1.1712   -0.8661    0.1606 H   0  0  0  0  0  0  0  0  0  0  0  0
   -1.6633   -1.6916    0.3121 H   0  0  0  0  0  0  0  0  0  0  0  0
   -1.9207   -0.4201   -1.5508 H   0  0  0  0  0  0  0  0  0  0  0  0
   -0.1621   -0.2083   -1.0671 H   0  0  0  0  0  0  0  0  0  0  0  0
   -2.1336    1.8824   -1.4000 H   0  0  0  0  0  0  0  0  0  0  0  0
   -0.5428    2.0440   -0.5004 H   0  0  0  0  0  0  0  0  0  0  0  0
   -1.7387    1.8843    1.5709 H   0  0  0  0  0  0  0  0  0  0  0  0
   -3.1854    2.1783    0.5054 H   0  0  0  0  0  0  0  0  0  0  0  0
   -5.1598   -1.6588    2.1133 H   0  0  0  0  0  0  0  0  0  0  0  0
   -4.3482   -2.2052   -0.7444 H   0  0  0  0  0  0  0  0  0  0  0  0
   -3.4739   -2.9296    0.6414 H   0  0  0  0  0  0  0  0  0  0  0  0
   -6.5389   -3.1288   -1.3575 H   0  0  0  0  0  0  0  0  0  0  0  0
   -8.1077   -5.0483   -1.1611 H   0  0  0  0  0  0  0  0  0  0  0  0
   -7.8804   -6.6995    0.5877 H   0  0  0  0  0  0  0  0  0  0  0  0
   -6.0070   -6.4304    2.2165 H   0  0  0  0  0  0  0  0  0  0  0  0
   -4.4512   -4.5313    2.0579 H   0  0  0  0  0  0  0  0  0  0  0  0
   -6.8858   -1.6033    1.2816 H   0  0  0  0  0  0  0  0  0  0  0  0
   -8.7471    0.2917   -2.5600 H   0  0  0  0  0  0  0  0  0  0  0  0
   -7.4020    1.2497   -3.1401 H   0  0  0  0  0  0  0  0  0  0  0  0
   -7.6075    2.3137    0.1457 H   0  0  0  0  0  0  0  0  0  0  0  0
   -8.6795    4.4978    0.8217 H   0  0  0  0  0  0  0  0  0  0  0  0
  -10.2671    5.6083   -0.6515 H   0  0  0  0  0  0  0  0  0  0  0  0
  -10.8292    4.5950   -2.7943 H   0  0  0  0  0  0  0  0  0  0  0  0
   -9.8086    2.4479   -3.4682 H   0  0  0  0  0  0  0  0  0  0  0  0
    5.2796    0.3697    2.7046 H   0  0  0  0  0  0  0  0  0  0  0  0
    4.0583    1.0379    3.8247 H   0  0  0  0  0  0  0  0  0  0  0  0
    6.5742    2.1692    3.5778 H   0  0  0  0  0  0  0  0  0  0  0  0
    5.1099    3.1259    3.9878 H   0  0  0  0  0  0  0  0  0  0  0  0
    5.4031    4.3535    2.1290 H   0  0  0  0  0  0  0  0  0  0  0  0
    6.7071    3.1915    1.5397 H   0  0  0  0  0  0  0  0  0  0  0  0
    4.0335    3.3184    0.4678 H   0  0  0  0  0  0  0  0  0  0  0  0
    7.0054    3.1535   -0.3945 H   0  0  0  0  0  0  0  0  0  0  0  0
    8.3528    1.9061   -1.7062 H   0  0  0  0  0  0  0  0  0  0  0  0
    6.9339   -0.3142   -0.1283 H   0  0  0  0  0  0  0  0  0  0  0  0
    8.4321    0.5749    0.1659 H   0  0  0  0  0  0  0  0  0  0  0  0
   10.4345    0.1360   -0.8105 H   0  0  0  0  0  0  0  0  0  0  0  0
   11.8913   -1.5705   -1.7741 H   0  0  0  0  0  0  0  0  0  0  0  0
   10.8242   -3.5542   -2.8656 H   0  0  0  0  0  0  0  0  0  0  0  0
    8.3656   -3.7991   -2.9582 H   0  0  0  0  0  0  0  0  0  0  0  0
    6.9264   -2.0590   -1.9916 H   0  0  0  0  0  0  0  0  0  0  0  0
    7.7863    0.5203   -4.5020 H   0  0  0  0  0  0  0  0  0  0  0  0
    6.3572   -0.4567   -4.0783 H   0  0  0  0  0  0  0  0  0  0  0  0
  1  2  1  0
  2  3  1  0
  3  4  1  0
  4  5  2  0
  4  6  1  0
  6  7  1  0
  7  8  1  0
  8  9  1  0
  9 10  1  0
 10 11  1  0
 11 12  2  0
 11 13  1  0
 13 14  1  0
 14 15  1  0
 15 16  2  0
 16 17  1  0
 17 18  2  0
 18 19  1  0
 19 20  2  0
 13 21  1  0
 21 22  1  0
 22 23  2  0
 22 24  1  0
 24 25  1  0
 25 26  1  0
 26 27  2  0
 27 28  1  0
 28 29  2  0
 29 30  1  0
 30 31  2  0
  2 32  1  0
 32 33  2  0
 32 34  1  0
 34 35  1  0
 35 36  1  0
 36 37  1  0
 37 38  1  0
 38 39  1  0
 39 40  2  0
 39 41  1  0
 41 42  1  0
 42 43  1  0
 43 44  1  0
 44 45  2  0
 45 46  1  0
 46 47  2  0
 47 48  1  0
 48 49  2  0
 42 50  1  0
 50 51  1  0
 50 52  2  0
 10  6  1  0
 20 15  1  0
 31 26  1  0
 38 34  1  0
 49 44  1  0
  1 53  1  0
  1 54  1  0
  1 55  1  0
  2 56  1  1
  3 57  1  0
  6 58  1  6
  7 59  1  0
  7 60  1  0
  8 61  1  0
  8 62  1  0
  9 63  1  0
  9 64  1  0
 13 65  1  1
 14 66  1  0
 14 67  1  0
 16 68  1  0
 17 69  1  0
 18 70  1  0
 19 71  1  0
 20 72  1  0
 21 73  1  0
 25 74  1  0
 25 75  1  0
 27 76  1  0
 28 77  1  0
 29 78  1  0
 30 79  1  0
 31 80  1  0
 35 81  1  0
 35 82  1  0
 36 83  1  0
 36 84  1  0
 37 85  1  0
 37 86  1  0
 38 87  1  6
 41 88  1  0
 42 89  1  6
 43 90  1  0
 43 91  1  0
 45 92  1  0
 46 93  1  0
 47 94  1  0
 48 95  1  0
 49 96  1  0
 51 97  1  0
 51 98  1  0
M  END
$$$$
[H]Oc1c([H])c(-c2c([H])c(O[H])c(O[H])c(O[H])c2[H])c([H])c(C#N)c1O[H]
     RDKit          3D

 28 29  0  0  0  0  0  0  0  0999 V2000
   -3.6945   -2.2557   -0.1457 O   0  0  0  0  0  0  0  0  0  0  0  0
   -2.8965   -1.1157   -0.2877 C   0  0  0  0  0  0  0  0  0  0  0  0
   -1.5617   -1.1833    0.0049 C   0  0  0  0  0  0  0  0  0  0  0  0
   -0.7702   -0.0455   -0.1378 C   0  0  0  0  0  0  0  0  0  0  0  0
   -1.3514    1.1168   -0.5693 C   0  0  0  0  0  0  0  0  0  0  0  0
   -2.6924    1.2147   -0.8713 C   0  0  0  0  0  0  0  0  0  0  0  0
   -3.2695    2.3947   -1.3068 O   0  0  0  0  0  0  0  0  0  0  0  0
   -3.4510    0.0687   -0.7197 C   0  0  0  0  0  0  0  0  0  0  0  0
   -4.8136    0.0685   -0.9998 O   0  0  0  0  0  0  0  0  0  0  0  0
    0.6582   -0.0699    0.1623 C   0  0  0  0  0  0  0  0  0  0  0  0
    1.5401    0.7388   -0.5160 C   0  0  0  0  0  0  0  0  0  0  0  0
    2.9033    0.7124   -0.2264 C   0  0  0  0  0  0  0  0  0  0  0  0
    3.8191    1.5141   -0.8908 O   0  0  0  0  0  0  0  0  0  0  0  0
    3.3920   -0.1282    0.7486 C   0  0  0  0  0  0  0  0  0  0  0  0
    4.7623   -0.1529    1.0376 O   0  0  0  0  0  0  0  0  0  0  0  0
    2.4929   -0.9318    1.4183 C   0  0  0  0  0  0  0  0  0  0  0  0
    1.1319   -0.9281    1.1529 C   0  0  0  0  0  0  0  0  0  0  0  0
    3.0177   -1.8057    2.4351 C   0  0  0  0  0  0  0  0  0  0  0  0
    3.4331   -2.5031    3.2604 N   0  0  0  0  0  0  0  0  0  0  0  0
   -3.2920   -3.1230    0.1701 H   0  0  0  0  0  0  0  0  0  0  0  0
   -1.0988   -2.1109    0.3493 H   0  0  0  0  0  0  0  0  0  0  0  0
   -0.7464    1.9978   -0.6814 H   0  0  0  0  0  0  0  0  0  0  0  0
   -2.7056    3.2174   -1.4117 H   0  0  0  0  0  0  0  0  0  0  0  0
   -5.2594    0.9093   -1.3172 H   0  0  0  0  0  0  0  0  0  0  0  0
    1.1621    1.3986   -1.2802 H   0  0  0  0  0  0  0  0  0  0  0  0
    3.4454    2.1336   -1.6117 H   0  0  0  0  0  0  0  0  0  0  0  0
    5.3777    0.4532    0.5203 H   0  0  0  0  0  0  0  0  0  0  0  0
    0.4673   -1.5848    1.7136 H   0  0  0  0  0  0  0  0  0  0  0  0
  1  2  1  0
  2  3  2  0
  3  4  1  0
  4  5  2  0
  5  6  1  0
  6  7  1  0
  6  8  2  0
  8  9  1  0
  4 10  1  0
 10 11  2  0
 11 12  1  0
 12 13  1  0
 12 14  2  0
 14 15  1  0
 14 16  1  0
 16 17  2  0
 16 18  1  0
 18 19  3  0
  8  2  1  0
 17 10  1  0
  1 20  1  0
  3 21  1  0
  5 22  1  0
  7 23  1  0
  9 24  1  0
 11 25  1  0
 13 26  1  0
 15 27  1  0
 17 28  1  0
M  END
$$$$
[H]OC([H])([H])[C@]1(O[H])C([H])([H])[C@@]2([H])O[C@]1(C([H])([H])[H])n1c3c([H])c([H])c([H])c([H])c3c3c4c(c5c6c([H])c([H])c([H])c([H])c6n2c5c31)C(=O)N([H])C4([H])[H]
     RDKit          3D

 54 61  0  0  0  0  0  0  0  0999 V2000
    3.1964    0.7373    1.6726 C   0  0  0  0  0  0  0  0  0  0  0  0
    2.1867    0.0820    0.7192 C   0  0  2  0  0  0  0  0  0  0  0  0
    1.6435   -0.9276    1.5746 O   0  0  0  0  0  0  0  0  0  0  0  0
    1.2592   -1.9953    0.8421 C   0  0  2  0  0  0  0  0  0  0  0  0
    1.8772   -1.8748   -0.5363 C   0  0  0  0  0  0  0  0  0  0  0  0
    2.8252   -0.7308   -0.3215 C   0  0  2  0  0  0  0  0  0  0  0  0
    4.0066   -1.2751    0.2103 O   0  0  0  0  0  0  0  0  0  0  0  0
    3.1688   -0.0490   -1.5999 C   0  0  0  0  0  0  0  0  0  0  0  0
    3.7121   -0.9983   -2.4659 O   0  0  0  0  0  0  0  0  0  0  0  0
   -0.1911   -1.8298    0.6187 N   0  0  0  0  0  0  0  0  0  0  0  0
   -1.0996   -2.7820    0.6374 C   0  0  0  0  0  0  0  0  0  0  0  0
   -0.9601   -4.1225    0.8842 C   0  0  0  0  0  0  0  0  0  0  0  0
   -2.0921   -4.9320    0.8441 C   0  0  0  0  0  0  0  0  0  0  0  0
   -3.3103   -4.3584    0.5582 C   0  0  0  0  0  0  0  0  0  0  0  0
   -3.4513   -2.9875    0.3061 C   0  0  0  0  0  0  0  0  0  0  0  0
   -2.3425   -2.2008    0.3465 C   0  0  0  0  0  0  0  0  0  0  0  0
   -2.1466   -0.8534    0.1507 C   0  0  0  0  0  0  0  0  0  0  0  0
   -2.9629    0.1987   -0.1701 C   0  0  0  0  0  0  0  0  0  0  0  0
   -4.3837    0.3443   -0.4218 C   0  0  0  0  0  0  0  0  0  0  0  0
   -5.2976   -0.4855   -0.4154 O   0  0  0  0  0  0  0  0  0  0  0  0
   -4.6125    1.7187   -0.7083 N   0  0  0  0  0  0  0  0  0  0  0  0
   -3.3733    2.4645   -0.6491 C   0  0  0  0  0  0  0  0  0  0  0  0
   -2.3559    1.4473   -0.3013 C   0  0  0  0  0  0  0  0  0  0  0  0
   -0.9987    1.6452   -0.1212 C   0  0  0  0  0  0  0  0  0  0  0  0
   -0.1676    2.7151   -0.1897 C   0  0  0  0  0  0  0  0  0  0  0  0
   -0.4344    4.0328   -0.4877 C   0  0  0  0  0  0  0  0  0  0  0  0
    0.5985    4.9623   -0.5107 C   0  0  0  0  0  0  0  0  0  0  0  0
    1.8752    4.5235   -0.2298 C   0  0  0  0  0  0  0  0  0  0  0  0
    2.1031    3.1718    0.0688 C   0  0  0  0  0  0  0  0  0  0  0  0
    1.1066    2.2419    0.0985 C   0  0  0  0  0  0  0  0  0  0  0  0
    1.0961    0.9246    0.3445 N   0  0  0  0  0  0  0  0  0  0  0  0
   -0.2237    0.5778    0.1973 C   0  0  0  0  0  0  0  0  0  0  0  0
   -0.7784   -0.6538    0.3313 C   0  0  0  0  0  0  0  0  0  0  0  0
    3.5399    0.0318    2.4722 H   0  0  0  0  0  0  0  0  0  0  0  0
    4.1303    0.9472    1.1036 H   0  0  0  0  0  0  0  0  0  0  0  0
    2.7757    1.5920    2.2134 H   0  0  0  0  0  0  0  0  0  0  0  0
    1.4859   -2.9770    1.2622 H   0  0  0  0  0  0  0  0  0  0  0  0
    1.1641   -1.5740   -1.3208 H   0  0  0  0  0  0  0  0  0  0  0  0
    2.3948   -2.8056   -0.8411 H   0  0  0  0  0  0  0  0  0  0  0  0
    3.7275   -1.8270    0.9989 H   0  0  0  0  0  0  0  0  0  0  0  0
    4.0069    0.6690   -1.3804 H   0  0  0  0  0  0  0  0  0  0  0  0
    2.3237    0.4412   -2.0950 H   0  0  0  0  0  0  0  0  0  0  0  0
    3.0829   -1.7564   -2.6016 H   0  0  0  0  0  0  0  0  0  0  0  0
    0.0133   -4.5502    1.1074 H   0  0  0  0  0  0  0  0  0  0  0  0
   -1.9961   -5.9832    1.0355 H   0  0  0  0  0  0  0  0  0  0  0  0
   -4.1690   -5.0115    0.5343 H   0  0  0  0  0  0  0  0  0  0  0  0
   -4.4384   -2.6734    0.1001 H   0  0  0  0  0  0  0  0  0  0  0  0
   -5.5440    2.1732   -0.9379 H   0  0  0  0  0  0  0  0  0  0  0  0
   -3.4839    3.2375    0.1406 H   0  0  0  0  0  0  0  0  0  0  0  0
   -3.2103    2.9077   -1.6416 H   0  0  0  0  0  0  0  0  0  0  0  0
   -1.4554    4.3320   -0.7026 H   0  0  0  0  0  0  0  0  0  0  0  0
    0.3816    5.9935   -0.7448 H   0  0  0  0  0  0  0  0  0  0  0  0
    2.7009    5.2250   -0.2403 H   0  0  0  0  0  0  0  0  0  0  0  0
    3.0966    2.8771    0.2616 H   0  0  0  0  0  0  0  0  0  0  0  0
  2  1  1  1
  2  3  1  0
  3  4  1  0
  4  5  1  0
  5  6  1  0
  6  7  1  1
  6  8  1  0
  8  9  1  0
  4 10  1  0
 10 11  1  0
 11 12  2  0
 12 13  1  0
 13 14  2  0
 14 15  1  0
 15 16  2  0
 16 17  1  0
 17 18  2  0
 18 19  1  0
 19 20  2  0
 19 21  1  0
 21 22  1  0
 22 23  1  0
 23 24  2  0
 24 25  1  0
 25 26  2  0
 26 27  1  0
 27 28  2  0
 28 29  1  0
 29 30  2  0
 30 31  1  0
 31 32  1  0
 32 33  2  0
  6  2  1  0
 33 10  1  0
 31  2  1  0
 16 11  1  0
 33 17  1  0
 23 18  1  0
 32 24  1  0
 30 25  1  0
  1 34  1  0
  1 35  1  0
  1 36  1  0
  4 37  1  1
  5 38  1  0
  5 39  1  0
  7 40  1  0
  8 41  1  0
  8 42  1  0
  9 43  1  0
 12 44  1  0
 13 45  1  0
 14 46  1  0
 15 47  1  0
 21 48  1  0
 22 49  1  0
 22 50  1  0
 26 51  1  0
 27 52  1  0
 28 53  1  0
 29 54  1  0
M  END
$$$$
[H]Oc1c([H])c(-c2c([H])c([H])c(Cl)c(Cl)c2[H])nc2c([H])c(OC([H])([H])[H])c(-c3oc([H])nc3[H])c([H])c12
     RDKit          3D

 38 41  0  0  0  0  0  0  0  0999 V2000
   -2.8490    2.8769    2.1332 C   0  0  0  0  0  0  0  0  0  0  0  0
   -3.2748    1.7601    1.3802 O   0  0  0  0  0  0  0  0  0  0  0  0
   -2.3680    0.8952    0.7838 C   0  0  0  0  0  0  0  0  0  0  0  0
   -0.9986    1.0516    0.8752 C   0  0  0  0  0  0  0  0  0  0  0  0
   -0.1168    0.1713    0.2686 C   0  0  0  0  0  0  0  0  0  0  0  0
    1.2080    0.3491    0.3751 N   0  0  0  0  0  0  0  0  0  0  0  0
    2.1235   -0.4703   -0.1905 C   0  0  0  0  0  0  0  0  0  0  0  0
    1.6828   -1.5388   -0.9105 C   0  0  0  0  0  0  0  0  0  0  0  0
    0.3005   -1.7651   -1.0492 C   0  0  0  0  0  0  0  0  0  0  0  0
   -0.1578   -2.8329   -1.7685 O   0  0  0  0  0  0  0  0  0  0  0  0
   -0.6001   -0.9000   -0.4528 C   0  0  0  0  0  0  0  0  0  0  0  0
   -1.9676   -1.0553   -0.5435 C   0  0  0  0  0  0  0  0  0  0  0  0
   -2.8476   -0.1773    0.0615 C   0  0  0  0  0  0  0  0  0  0  0  0
   -4.2981   -0.3786   -0.0594 C   0  0  0  0  0  0  0  0  0  0  0  0
   -4.9707   -1.3682   -0.7235 C   0  0  0  0  0  0  0  0  0  0  0  0
   -6.2984   -1.1942   -0.5912 N   0  0  0  0  0  0  0  0  0  0  0  0
   -6.4181   -0.0766    0.1682 C   0  0  0  0  0  0  0  0  0  0  0  0
   -5.2220    0.3864    0.4694 O   0  0  0  0  0  0  0  0  0  0  0  0
    3.5464   -0.2064   -0.0268 C   0  0  0  0  0  0  0  0  0  0  0  0
    4.5472   -0.9758   -0.5593 C   0  0  0  0  0  0  0  0  0  0  0  0
    5.8722   -0.6784   -0.3717 C   0  0  0  0  0  0  0  0  0  0  0  0
    6.2717    0.4055    0.3591 C   0  0  0  0  0  0  0  0  0  0  0  0
    7.9836    0.7438    0.5703 Cl  0  0  0  0  0  0  0  0  0  0  0  0
    5.2947    1.2062    0.9126 C   0  0  0  0  0  0  0  0  0  0  0  0
    5.7630    2.6202    1.8666 Cl  0  0  0  0  0  0  0  0  0  0  0  0
    3.9717    0.8978    0.7176 C   0  0  0  0  0  0  0  0  0  0  0  0
   -2.0359    2.5452    2.7999 H   0  0  0  0  0  0  0  0  0  0  0  0
   -3.7191    3.1884    2.7521 H   0  0  0  0  0  0  0  0  0  0  0  0
   -2.5400    3.6760    1.4237 H   0  0  0  0  0  0  0  0  0  0  0  0
   -0.6454    1.9061    1.4510 H   0  0  0  0  0  0  0  0  0  0  0  0
    2.3729   -2.2133   -1.3754 H   0  0  0  0  0  0  0  0  0  0  0  0
    0.5067   -3.4561   -2.1983 H   0  0  0  0  0  0  0  0  0  0  0  0
   -2.3263   -1.9184   -1.1251 H   0  0  0  0  0  0  0  0  0  0  0  0
   -4.5384   -2.1850   -1.2822 H   0  0  0  0  0  0  0  0  0  0  0  0
   -7.3516    0.3608    0.4749 H   0  0  0  0  0  0  0  0  0  0  0  0
    4.2861   -1.8379   -1.1412 H   0  0  0  0  0  0  0  0  0  0  0  0
    6.6288   -1.3256   -0.8188 H   0  0  0  0  0  0  0  0  0  0  0  0
    3.1844    1.5133    1.1435 H   0  0  0  0  0  0  0  0  0  0  0  0
  1  2  1  0
  2  3  1  0
  3  4  2  0
  4  5  1  0
  5  6  2  0
  6  7  1  0
  7  8  2  0
  8  9  1  0
  9 10  1  0
  9 11  2  0
 11 12  1  0
 12 13  2  0
 13 14  1  0
 14 15  2  0
 15 16  1  0
 16 17  2  0
 17 18  1  0
  7 19  1  0
 19 20  2  0
 20 21  1  0
 21 22  2  0
 22 23  1  0
 22 24  1  0
 24 25  1  0
 24 26  2  0
 13  3  1  0
 18 14  1  0
 26 19  1  0
 11  5  1  0
  1 27  1  0
  1 28  1  0
  1 29  1  0
  4 30  1  0
  8 31  1  0
 10 32  1  0
 12 33  1  0
 15 34  1  0
 17 35  1  0
 20 36  1  0
 21 37  1  0
 26 38  1  0
M  END
$$$$
[H]OC(=O)C([H])([H])[C@@]([H])(C(=O)O[H])N([H])C(=O)/C([H])=C(\[H])c1c([H])c([H])c(C([H])([H])C([H])([H])[H])c([H])c1[H]
     RDKit          3D

 38 38  0  0  0  0  0  0  0  0999 V2000
   -6.7039   -1.1360   -0.4818 C   0  0  0  0  0  0  0  0  0  0  0  0
   -6.2376    0.2883   -0.3823 C   0  0  0  0  0  0  0  0  0  0  0  0
   -4.7566    0.2650   -0.0981 C   0  0  0  0  0  0  0  0  0  0  0  0
   -3.8143    0.2727   -1.0817 C   0  0  0  0  0  0  0  0  0  0  0  0
   -2.4500    0.2458   -0.7758 C   0  0  0  0  0  0  0  0  0  0  0  0
   -2.0512    0.2110    0.5411 C   0  0  0  0  0  0  0  0  0  0  0  0
   -0.6638    0.1833    0.9667 C   0  0  0  0  0  0  0  0  0  0  0  0
    0.3362    0.2018    0.1270 C   0  0  0  0  0  0  0  0  0  0  0  0
    1.7186    0.1718    0.5979 C   0  0  0  0  0  0  0  0  0  0  0  0
    1.9710    0.1240    1.8296 O   0  0  0  0  0  0  0  0  0  0  0  0
    2.7791    0.1951   -0.3160 N   0  0  0  0  0  0  0  0  0  0  0  0
    4.1424    0.1601    0.1338 C   0  0  1  0  0  0  0  0  0  0  0  0
    4.9175   -1.0050   -0.4551 C   0  0  0  0  0  0  0  0  0  0  0  0
    6.3063   -0.9521    0.0752 C   0  0  0  0  0  0  0  0  0  0  0  0
    7.4249   -0.9187   -0.7405 O   0  0  0  0  0  0  0  0  0  0  0  0
    6.4532   -0.9369    1.3154 O   0  0  0  0  0  0  0  0  0  0  0  0
    4.7682    1.4481   -0.1952 C   0  0  0  0  0  0  0  0  0  0  0  0
    6.1007    1.6430    0.1204 O   0  0  0  0  0  0  0  0  0  0  0  0
    4.1346    2.3632   -0.7506 O   0  0  0  0  0  0  0  0  0  0  0  0
   -3.0298    0.2051    1.5101 C   0  0  0  0  0  0  0  0  0  0  0  0
   -4.3796    0.2316    1.2170 C   0  0  0  0  0  0  0  0  0  0  0  0
   -7.5109   -1.3223    0.2835 H   0  0  0  0  0  0  0  0  0  0  0  0
   -7.1823   -1.2771   -1.4930 H   0  0  0  0  0  0  0  0  0  0  0  0
   -5.9225   -1.8850   -0.2951 H   0  0  0  0  0  0  0  0  0  0  0  0
   -6.3402    0.8178   -1.3545 H   0  0  0  0  0  0  0  0  0  0  0  0
   -6.7166    0.8649    0.4266 H   0  0  0  0  0  0  0  0  0  0  0  0
   -4.1350    0.3003   -2.1305 H   0  0  0  0  0  0  0  0  0  0  0  0
   -1.7286    0.2551   -1.5757 H   0  0  0  0  0  0  0  0  0  0  0  0
   -0.4460    0.1466    2.0337 H   0  0  0  0  0  0  0  0  0  0  0  0
    0.1431    0.2407   -0.9164 H   0  0  0  0  0  0  0  0  0  0  0  0
    2.5824    0.2361   -1.3329 H   0  0  0  0  0  0  0  0  0  0  0  0
    4.1367    0.0701    1.2475 H   0  0  0  0  0  0  0  0  0  0  0  0
    4.9878   -0.8316   -1.5538 H   0  0  0  0  0  0  0  0  0  0  0  0
    4.4591   -1.9721   -0.2059 H   0  0  0  0  0  0  0  0  0  0  0  0
    8.1780   -1.6146   -0.6906 H   0  0  0  0  0  0  0  0  0  0  0  0
    6.4582    2.3059    0.7796 H   0  0  0  0  0  0  0  0  0  0  0  0
   -2.8026    0.1800    2.5867 H   0  0  0  0  0  0  0  0  0  0  0  0
   -5.1265    0.2239    2.0290 H   0  0  0  0  0  0  0  0  0  0  0  0
  1  2  1  0
  2  3  1  0
  3  4  2  0
  4  5  1  0
  5  6  2  0
  6  7  1  0
  7  8  2  0
  8  9  1  0
  9 10  2  0
  9 11  1  0
 11 12  1  0
 12 13  1  0
 13 14  1  0
 14 15  1  0
 14 16  2  0
 12 17  1  0
 17 18  1  0
 17 19  2  0
  6 20  1  0
 20 21  2  0
 21  3  1  0
  1 22  1  0
  1 23  1  0
  1 24  1  0
  2 25  1  0
  2 26  1  0
  4 27  1  0
  5 28  1  0
  7 29  1  0
  8 30  1  0
 11 31  1  0
 12 32  1  1
 13 33  1  0
 13 34  1  0
 15 35  1  0
 18 36  1  0
 20 37  1  0
 21 38  1  0
M  END
$$$$
[H]C([H])=C([H])C(=O)N([H])[C@]1([H])C([H])([H])C([H])([H])[C@@]([H])(n2c([H])c(-c3c([H])c([H])c(Oc4c([H])c([H])c([H])c([H])c4[H])c([H])c3[H])c3c(N([H])[H])nc([H])nc32)C([H])([H])C1([H])[H]
     RDKit          3D

 61 65  0  0  0  0  0  0  0  0999 V2000
   -2.5738   -1.7781    2.4609 N   0  0  0  0  0  0  0  0  0  0  0  0
   -1.1524   -1.7199    2.4791 C   0  0  0  0  0  0  0  0  0  0  0  0
   -0.4481   -2.3230    3.4617 N   0  0  0  0  0  0  0  0  0  0  0  0
    0.8916   -2.2471    3.4935 C   0  0  0  0  0  0  0  0  0  0  0  0
    1.5718   -1.5711    2.5524 N   0  0  0  0  0  0  0  0  0  0  0  0
    0.9373   -0.9467    1.5448 C   0  0  0  0  0  0  0  0  0  0  0  0
    1.3915   -0.2050    0.4994 N   0  0  0  0  0  0  0  0  0  0  0  0
    0.3228    0.1838   -0.1925 C   0  0  0  0  0  0  0  0  0  0  0  0
   -0.8372   -0.3003    0.3936 C   0  0  0  0  0  0  0  0  0  0  0  0
   -2.2019   -0.1225   -0.1006 C   0  0  0  0  0  0  0  0  0  0  0  0
   -3.0049   -1.1556   -0.5364 C   0  0  0  0  0  0  0  0  0  0  0  0
   -4.2926   -0.9647   -0.9872 C   0  0  0  0  0  0  0  0  0  0  0  0
   -4.8546    0.2921   -1.0269 C   0  0  0  0  0  0  0  0  0  0  0  0
   -6.1515    0.5155   -1.4766 O   0  0  0  0  0  0  0  0  0  0  0  0
   -7.2488    0.4915   -0.6281 C   0  0  0  0  0  0  0  0  0  0  0  0
   -8.5265    0.7079   -1.0532 C   0  0  0  0  0  0  0  0  0  0  0  0
   -9.5532    0.6672   -0.1530 C   0  0  0  0  0  0  0  0  0  0  0  0
   -9.3519    0.4116    1.1951 C   0  0  0  0  0  0  0  0  0  0  0  0
   -8.0502    0.1960    1.6005 C   0  0  0  0  0  0  0  0  0  0  0  0
   -7.0066    0.2345    0.7019 C   0  0  0  0  0  0  0  0  0  0  0  0
   -4.0473    1.3301   -0.5894 C   0  0  0  0  0  0  0  0  0  0  0  0
   -2.7662    1.1528   -0.1390 C   0  0  0  0  0  0  0  0  0  0  0  0
   -0.4643   -1.0180    1.4976 C   0  0  0  0  0  0  0  0  0  0  0  0
    2.8044    0.0750    0.2418 C   0  0  1  0  0  0  0  0  0  0  0  0
    3.3801   -0.8289   -0.8091 C   0  0  0  0  0  0  0  0  0  0  0  0
    4.3874   -0.1853   -1.6972 C   0  0  0  0  0  0  0  0  0  0  0  0
    5.2511    0.8403   -1.0420 C   0  0  1  0  0  0  0  0  0  0  0  0
    4.4623    1.8054   -0.1676 C   0  0  0  0  0  0  0  0  0  0  0  0
    2.9712    1.5109   -0.2629 C   0  0  0  0  0  0  0  0  0  0  0  0
    6.3751    0.2976   -0.3451 N   0  0  0  0  0  0  0  0  0  0  0  0
    7.7228    0.5398   -0.6661 C   0  0  0  0  0  0  0  0  0  0  0  0
    7.9815    1.2902   -1.6397 O   0  0  0  0  0  0  0  0  0  0  0  0
    8.8278   -0.0374    0.0758 C   0  0  0  0  0  0  0  0  0  0  0  0
   10.0767    0.2170   -0.2611 C   0  0  0  0  0  0  0  0  0  0  0  0
   -3.2028   -0.9719    2.6627 H   0  0  0  0  0  0  0  0  0  0  0  0
   -3.0293   -2.6872    2.2306 H   0  0  0  0  0  0  0  0  0  0  0  0
    1.4486   -2.7401    4.2944 H   0  0  0  0  0  0  0  0  0  0  0  0
    0.3088    0.7889   -1.0869 H   0  0  0  0  0  0  0  0  0  0  0  0
   -2.5606   -2.1692   -0.5179 H   0  0  0  0  0  0  0  0  0  0  0  0
   -4.8679   -1.8048   -1.3124 H   0  0  0  0  0  0  0  0  0  0  0  0
   -8.6683    0.9088   -2.1242 H   0  0  0  0  0  0  0  0  0  0  0  0
  -10.5801    0.8394   -0.4847 H   0  0  0  0  0  0  0  0  0  0  0  0
  -10.1592    0.3795    1.9030 H   0  0  0  0  0  0  0  0  0  0  0  0
   -7.8246   -0.0086    2.6387 H   0  0  0  0  0  0  0  0  0  0  0  0
   -5.9908    0.0590    1.0600 H   0  0  0  0  0  0  0  0  0  0  0  0
   -4.5044    2.3251   -0.6253 H   0  0  0  0  0  0  0  0  0  0  0  0
   -2.1542    1.9773    0.1976 H   0  0  0  0  0  0  0  0  0  0  0  0
    3.4001    0.0100    1.1757 H   0  0  0  0  0  0  0  0  0  0  0  0
    3.7265   -1.7733   -0.3373 H   0  0  0  0  0  0  0  0  0  0  0  0
    2.5140   -1.1379   -1.4658 H   0  0  0  0  0  0  0  0  0  0  0  0
    5.0618   -0.9921   -2.0798 H   0  0  0  0  0  0  0  0  0  0  0  0
    3.9187    0.2580   -2.6093 H   0  0  0  0  0  0  0  0  0  0  0  0
    5.6709    1.4828   -1.8719 H   0  0  0  0  0  0  0  0  0  0  0  0
    4.7926    1.6177    0.8886 H   0  0  0  0  0  0  0  0  0  0  0  0
    4.6737    2.8518   -0.3781 H   0  0  0  0  0  0  0  0  0  0  0  0
    2.4457    2.2316    0.3672 H   0  0  0  0  0  0  0  0  0  0  0  0
    2.6800    1.5412   -1.3243 H   0  0  0  0  0  0  0  0  0  0  0  0
    6.1787   -0.3330    0.4727 H   0  0  0  0  0  0  0  0  0  0  0  0
    8.6865   -0.6932    0.9271 H   0  0  0  0  0  0  0  0  0  0  0  0
   10.9301   -0.1883    0.2594 H   0  0  0  0  0  0  0  0  0  0  0  0
   10.2822    0.8727   -1.1127 H   0  0  0  0  0  0  0  0  0  0  0  0
  1  2  1  0
  2  3  2  0
  3  4  1  0
  4  5  2  0
  5  6  1  0
  6  7  1  0
  7  8  1  0
  8  9  2  0
  9 10  1  0
 10 11  2  0
 11 12  1  0
 12 13  2  0
 13 14  1  0
 14 15  1  0
 15 16  2  0
 16 17  1  0
 17 18  2  0
 18 19  1  0
 19 20  2  0
 13 21  1  0
 21 22  2  0
  9 23  1  0
  7 24  1  0
 24 25  1  0
 25 26  1  0
 26 27  1  0
 27 28  1  0
 28 29  1  0
 27 30  1  0
 30 31  1  0
 31 32  2  0
 31 33  1  0
 33 34  2  3
 23  2  1  0
 29 24  1  0
 23  6  2  0
 22 10  1  0
 20 15  1  0
  1 35  1  0
  1 36  1  0
  4 37  1  0
  8 38  1  0
 11 39  1  0
 12 40  1  0
 16 41  1  0
 17 42  1  0
 18 43  1  0
 19 44  1  0
 20 45  1  0
 21 46  1  0
 22 47  1  0
 24 48  1  1
 25 49  1  0
 25 50  1  0
 26 51  1  0
 26 52  1  0
 27 53  1  6
 28 54  1  0
 28 55  1  0
 29 56  1  0
 29 57  1  0
 30 58  1  0
 33 59  1  0
 34 60  1  0
 34 61  1  0
M  END
$$$$
[H]/C(=C1/C(=O)N([H])c2c([H])c([H])c(F)c([H])c21)c1c(C([H])([H])[H])c(C(=O)N([H])C([H])([H])C([H])([H])N(C([H])([H])C([H])([H])[H])C([H])([H])C([H])([H])[H])c(C([H])([H])[H])n1[H]
     RDKit          3D

 56 58  0  0  0  0  0  0  0  0999 V2000
   -5.0714    1.8670   -1.0108 C   0  0  0  0  0  0  0  0  0  0  0  0
   -5.3461    0.3881   -0.8275 C   0  0  0  0  0  0  0  0  0  0  0  0
   -4.6170   -0.1646    0.3206 N   0  0  0  0  0  0  0  0  0  0  0  0
   -5.1790    0.4151    1.5016 C   0  0  0  0  0  0  0  0  0  0  0  0
   -4.5345   -0.0334    2.7742 C   0  0  0  0  0  0  0  0  0  0  0  0
   -4.6501   -1.5699    0.2637 C   0  0  0  0  0  0  0  0  0  0  0  0
   -3.7757   -2.2111   -0.7540 C   0  0  0  0  0  0  0  0  0  0  0  0
   -2.3731   -2.1323   -0.6218 N   0  0  0  0  0  0  0  0  0  0  0  0
   -1.4740   -1.0577   -0.5954 C   0  0  0  0  0  0  0  0  0  0  0  0
   -1.9007    0.1569   -0.6986 O   0  0  0  0  0  0  0  0  0  0  0  0
   -0.0260   -1.1673   -0.4518 C   0  0  0  0  0  0  0  0  0  0  0  0
    0.8308   -2.2047   -0.6599 C   0  0  0  0  0  0  0  0  0  0  0  0
    0.5183   -3.5624   -1.1880 C   0  0  0  0  0  0  0  0  0  0  0  0
    2.1148   -1.8439   -0.3380 N   0  0  0  0  0  0  0  0  0  0  0  0
    2.0987   -0.5939    0.0716 C   0  0  0  0  0  0  0  0  0  0  0  0
    3.1774    0.2565    0.5004 C   0  0  0  0  0  0  0  0  0  0  0  0
    4.2152    0.5258   -0.2368 C   0  0  0  0  0  0  0  0  0  0  0  0
    4.5400    0.0878   -1.5770 C   0  0  0  0  0  0  0  0  0  0  0  0
    3.8503   -0.6552   -2.3249 O   0  0  0  0  0  0  0  0  0  0  0  0
    5.8118    0.6670   -1.9034 N   0  0  0  0  0  0  0  0  0  0  0  0
    6.2838    1.4437   -0.8228 C   0  0  0  0  0  0  0  0  0  0  0  0
    7.4169    2.1967   -0.6129 C   0  0  0  0  0  0  0  0  0  0  0  0
    7.6451    2.8791    0.5618 C   0  0  0  0  0  0  0  0  0  0  0  0
    6.7134    2.8201    1.5851 C   0  0  0  0  0  0  0  0  0  0  0  0
    6.8926    3.4732    2.7576 F   0  0  0  0  0  0  0  0  0  0  0  0
    5.5872    2.0654    1.3625 C   0  0  0  0  0  0  0  0  0  0  0  0
    5.3509    1.3770    0.1845 C   0  0  0  0  0  0  0  0  0  0  0  0
    0.7763   -0.1375    0.0139 C   0  0  0  0  0  0  0  0  0  0  0  0
    0.3086    1.2202    0.3933 C   0  0  0  0  0  0  0  0  0  0  0  0
   -5.8586    2.4508   -0.5357 H   0  0  0  0  0  0  0  0  0  0  0  0
   -4.0666    2.1489   -0.6432 H   0  0  0  0  0  0  0  0  0  0  0  0
   -5.0551    2.0620   -2.1045 H   0  0  0  0  0  0  0  0  0  0  0  0
   -5.1075   -0.2012   -1.6994 H   0  0  0  0  0  0  0  0  0  0  0  0
   -6.4302    0.2709   -0.5364 H   0  0  0  0  0  0  0  0  0  0  0  0
   -6.2797    0.2912    1.5323 H   0  0  0  0  0  0  0  0  0  0  0  0
   -5.0076    1.5283    1.4040 H   0  0  0  0  0  0  0  0  0  0  0  0
   -5.0445   -0.8560    3.2889 H   0  0  0  0  0  0  0  0  0  0  0  0
   -3.4622   -0.2647    2.6232 H   0  0  0  0  0  0  0  0  0  0  0  0
   -4.5485    0.8322    3.4886 H   0  0  0  0  0  0  0  0  0  0  0  0
   -4.4903   -2.0463    1.2893 H   0  0  0  0  0  0  0  0  0  0  0  0
   -5.7090   -1.9542    0.0302 H   0  0  0  0  0  0  0  0  0  0  0  0
   -4.1207   -3.3053   -0.7880 H   0  0  0  0  0  0  0  0  0  0  0  0
   -4.0214   -1.8378   -1.7910 H   0  0  0  0  0  0  0  0  0  0  0  0
   -1.9069   -3.1170   -0.4939 H   0  0  0  0  0  0  0  0  0  0  0  0
    1.4454   -4.0202   -1.6271 H   0  0  0  0  0  0  0  0  0  0  0  0
   -0.1980   -3.5119   -2.0293 H   0  0  0  0  0  0  0  0  0  0  0  0
    0.1816   -4.2087   -0.3617 H   0  0  0  0  0  0  0  0  0  0  0  0
    2.9340   -2.4990   -0.4118 H   0  0  0  0  0  0  0  0  0  0  0  0
    3.1447    0.7200    1.5125 H   0  0  0  0  0  0  0  0  0  0  0  0
    6.3151    0.5384   -2.8011 H   0  0  0  0  0  0  0  0  0  0  0  0
    8.1416    2.2410   -1.4148 H   0  0  0  0  0  0  0  0  0  0  0  0
    8.5539    3.4777    0.7183 H   0  0  0  0  0  0  0  0  0  0  0  0
    4.8413    2.0008    2.1446 H   0  0  0  0  0  0  0  0  0  0  0  0
    1.1157    1.7992    0.8832 H   0  0  0  0  0  0  0  0  0  0  0  0
   -0.5276    1.1531    1.1483 H   0  0  0  0  0  0  0  0  0  0  0  0
   -0.0237    1.8018   -0.4924 H   0  0  0  0  0  0  0  0  0  0  0  0
  1  2  1  0
  2  3  1  0
  3  4  1  0
  4  5  1  0
  3  6  1  0
  6  7  1  0
  7  8  1  0
  8  9  1  0
  9 10  2  0
  9 11  1  0
 11 12  2  0
 12 13  1  0
 12 14  1  0
 14 15  1  0
 15 16  1  0
 16 17  2  0
 17 18  1  0
 18 19  2  0
 18 20  1  0
 20 21  1  0
 21 22  2  0
 22 23  1  0
 23 24  2  0
 24 25  1  0
 24 26  1  0
 26 27  2  0
 15 28  2  0
 28 29  1  0
 28 11  1  0
 27 17  1  0
 27 21  1  0
  1 30  1  0
  1 31  1  0
  1 32  1  0
  2 33  1  0
  2 34  1  0
  4 35  1  0
  4 36  1  0
  5 37  1  0
  5 38  1  0
  5 39  1  0
  6 40  1  0
  6 41  1  0
  7 42  1  0
  7 43  1  0
  8 44  1  0
 13 45  1  0
 13 46  1  0
 13 47  1  0
 14 48  1  0
 16 49  1  0
 20 50  1  0
 22 51  1  0
 23 52  1  0
 26 53  1  0
 29 54  1  0
 29 55  1  0
 29 56  1  0
M  END
$$$$
[H]c1nc(-c2nnn(-c3c([H])c(F)c([H])c(-c4c([H])c([H])nc([H])c4[H])c3[H])n2)c([H])c([H])c1[H]
     RDKit          3D

 35 38  0  0  0  0  0  0  0  0999 V2000
   -2.0530   -3.8708    0.9971 F   0  0  0  0  0  0  0  0  0  0  0  0
   -1.8708   -2.5615    0.7194 C   0  0  0  0  0  0  0  0  0  0  0  0
   -2.9817   -1.8224    0.3618 C   0  0  0  0  0  0  0  0  0  0  0  0
   -2.8679   -0.4728    0.0633 C   0  0  0  0  0  0  0  0  0  0  0  0
   -1.6082    0.0829    0.1411 C   0  0  0  0  0  0  0  0  0  0  0  0
   -0.4767   -0.6064    0.4904 C   0  0  0  0  0  0  0  0  0  0  0  0
   -0.6313   -1.9584    0.7827 C   0  0  0  0  0  0  0  0  0  0  0  0
    0.8067    0.0210    0.5551 N   0  0  0  0  0  0  0  0  0  0  0  0
    0.9890    1.2519    1.0088 N   0  0  0  0  0  0  0  0  0  0  0  0
    2.2660    1.5785    0.9572 N   0  0  0  0  0  0  0  0  0  0  0  0
    2.9168    0.5272    0.4569 C   0  0  0  0  0  0  0  0  0  0  0  0
    1.9886   -0.4166    0.2194 N   0  0  0  0  0  0  0  0  0  0  0  0
    4.3598    0.4366    0.2194 C   0  0  0  0  0  0  0  0  0  0  0  0
    4.9374   -0.6928   -0.3012 C   0  0  0  0  0  0  0  0  0  0  0  0
    6.2939   -0.7238   -0.5036 C   0  0  0  0  0  0  0  0  0  0  0  0
    7.0933    0.3833   -0.1849 C   0  0  0  0  0  0  0  0  0  0  0  0
    6.4825    1.5039    0.3369 C   0  0  0  0  0  0  0  0  0  0  0  0
    5.1519    1.5055    0.5242 N   0  0  0  0  0  0  0  0  0  0  0  0
   -4.0497    0.2779   -0.3086 C   0  0  0  0  0  0  0  0  0  0  0  0
   -3.9741    1.3374   -1.1761 C   0  0  0  0  0  0  0  0  0  0  0  0
   -5.1147    2.0656   -1.5376 C   0  0  0  0  0  0  0  0  0  0  0  0
   -6.3032    1.6926   -1.0036 N   0  0  0  0  0  0  0  0  0  0  0  0
   -6.4137    0.6587   -0.1498 C   0  0  0  0  0  0  0  0  0  0  0  0
   -5.2787   -0.0556    0.2016 C   0  0  0  0  0  0  0  0  0  0  0  0
   -3.9766   -2.2893    0.3069 H   0  0  0  0  0  0  0  0  0  0  0  0
   -1.5285    1.1330   -0.0927 H   0  0  0  0  0  0  0  0  0  0  0  0
    0.2488   -2.5249    1.0616 H   0  0  0  0  0  0  0  0  0  0  0  0
    4.3454   -1.5443   -0.5495 H   0  0  0  0  0  0  0  0  0  0  0  0
    6.7870   -1.6046   -0.9154 H   0  0  0  0  0  0  0  0  0  0  0  0
    8.1559    0.3491   -0.3472 H   0  0  0  0  0  0  0  0  0  0  0  0
    7.0999    2.3763    0.5898 H   0  0  0  0  0  0  0  0  0  0  0  0
   -3.0165    1.6043   -1.5794 H   0  0  0  0  0  0  0  0  0  0  0  0
   -5.0228    2.8955   -2.2235 H   0  0  0  0  0  0  0  0  0  0  0  0
   -7.3573    0.3525    0.2824 H   0  0  0  0  0  0  0  0  0  0  0  0
   -5.3973   -0.8893    0.8959 H   0  0  0  0  0  0  0  0  0  0  0  0
  1  2  1  0
  2  3  2  0
  3  4  1  0
  4  5  2  0
  5  6  1  0
  6  7  2  0
  6  8  1  0
  8  9  1  0
  9 10  2  0
 10 11  1  0
 11 12  2  0
 11 13  1  0
 13 14  2  0
 14 15  1  0
 15 16  2  0
 16 17  1  0
 17 18  2  0
  4 19  1  0
 19 20  2  0
 20 21  1  0
 21 22  2  0
 22 23  1  0
 23 24  2  0
  7  2  1  0
 12  8  1  0
 18 13  1  0
 24 19  1  0
  3 25  1  0
  5 26  1  0
  7 27  1  0
 14 28  1  0
 15 29  1  0
 16 30  1  0
 17 31  1  0
 20 32  1  0
 21 33  1  0
 23 34  1  0
 24 35  1  0
M  END
$$$$
[H]c1nc(C([H])([H])[H])c([H])c(-c2nc(-c3c([H])c([H])c(F)c(Cl)c3[H])n3c2C([H])([H])C([H])([H])O[C@]([H])(C([H])([H])[H])C3([H])[H])c1[H]
     RDKit          3D

 45 48  0  0  0  0  0  0  0  0999 V2000
   -2.0543    3.9192   -0.5851 C   0  0  0  0  0  0  0  0  0  0  0  0
   -1.0788    2.8662   -0.1165 C   0  0  2  0  0  0  0  0  0  0  0  0
   -1.8421    1.5397   -0.0536 C   0  0  0  0  0  0  0  0  0  0  0  0
   -0.9418    0.4305    0.0663 N   0  0  0  0  0  0  0  0  0  0  0  0
    0.3858    0.5859    0.3281 C   0  0  0  0  0  0  0  0  0  0  0  0
    1.2450    1.7314    0.5964 C   0  0  0  0  0  0  0  0  0  0  0  0
    0.6584    2.8953    1.3001 C   0  0  0  0  0  0  0  0  0  0  0  0
   -0.6895    3.0746    1.2235 O   0  0  0  0  0  0  0  0  0  0  0  0
    0.8916   -0.6963    0.3114 C   0  0  0  0  0  0  0  0  0  0  0  0
   -0.1002   -1.5285    0.0556 N   0  0  0  0  0  0  0  0  0  0  0  0
   -1.2642   -0.8267   -0.1002 C   0  0  0  0  0  0  0  0  0  0  0  0
   -2.5159   -1.5254   -0.4252 C   0  0  0  0  0  0  0  0  0  0  0  0
   -2.4036   -2.8666   -0.8160 C   0  0  0  0  0  0  0  0  0  0  0  0
   -3.5452   -3.5709   -1.0944 C   0  0  0  0  0  0  0  0  0  0  0  0
   -4.7814   -2.9861   -0.9964 C   0  0  0  0  0  0  0  0  0  0  0  0
   -5.8907   -3.6876   -1.2725 F   0  0  0  0  0  0  0  0  0  0  0  0
   -4.9027   -1.6797   -0.6158 C   0  0  0  0  0  0  0  0  0  0  0  0
   -6.4585   -0.8780   -0.4731 Cl  0  0  0  0  0  0  0  0  0  0  0  0
   -3.7429   -0.9430   -0.3261 C   0  0  0  0  0  0  0  0  0  0  0  0
    2.2672   -1.1687    0.5268 C   0  0  0  0  0  0  0  0  0  0  0  0
    2.4899   -2.2194    1.3741 C   0  0  0  0  0  0  0  0  0  0  0  0
    3.8152   -2.6404    1.5266 C   0  0  0  0  0  0  0  0  0  0  0  0
    4.8272   -2.0536    0.8814 N   0  0  0  0  0  0  0  0  0  0  0  0
    4.6268   -1.0212    0.0460 C   0  0  0  0  0  0  0  0  0  0  0  0
    5.7540   -0.3652   -0.6746 C   0  0  0  0  0  0  0  0  0  0  0  0
    3.3152   -0.5862   -0.1203 C   0  0  0  0  0  0  0  0  0  0  0  0
   -3.1037    3.5636   -0.5824 H   0  0  0  0  0  0  0  0  0  0  0  0
   -1.8248    4.2712   -1.6154 H   0  0  0  0  0  0  0  0  0  0  0  0
   -1.9614    4.8160    0.0826 H   0  0  0  0  0  0  0  0  0  0  0  0
   -0.2317    2.8014   -0.8022 H   0  0  0  0  0  0  0  0  0  0  0  0
   -2.4285    1.4374   -0.9809 H   0  0  0  0  0  0  0  0  0  0  0  0
   -2.5263    1.6570    0.7988 H   0  0  0  0  0  0  0  0  0  0  0  0
    1.6396    2.0995   -0.3966 H   0  0  0  0  0  0  0  0  0  0  0  0
    2.1848    1.3923    1.1332 H   0  0  0  0  0  0  0  0  0  0  0  0
    1.2097    3.8528    1.0521 H   0  0  0  0  0  0  0  0  0  0  0  0
    0.8981    2.7607    2.3993 H   0  0  0  0  0  0  0  0  0  0  0  0
   -1.4381   -3.3668   -0.9072 H   0  0  0  0  0  0  0  0  0  0  0  0
   -3.4599   -4.6237   -1.4019 H   0  0  0  0  0  0  0  0  0  0  0  0
   -3.9205    0.0713   -0.0103 H   0  0  0  0  0  0  0  0  0  0  0  0
    1.7061   -2.7284    1.9195 H   0  0  0  0  0  0  0  0  0  0  0  0
    4.0394   -3.4620    2.1816 H   0  0  0  0  0  0  0  0  0  0  0  0
    6.1788    0.4764   -0.1084 H   0  0  0  0  0  0  0  0  0  0  0  0
    5.3260    0.0346   -1.6318 H   0  0  0  0  0  0  0  0  0  0  0  0
    6.5290   -1.1048   -0.9029 H   0  0  0  0  0  0  0  0  0  0  0  0
    3.1188    0.2520   -0.7935 H   0  0  0  0  0  0  0  0  0  0  0  0
  1  2  1  0
  2  3  1  0
  3  4  1  0
  4  5  1  0
  5  6  1  0
  6  7  1  0
  7  8  1  0
  5  9  2  0
  9 10  1  0
 10 11  2  0
 11 12  1  0
 12 13  2  0
 13 14  1  0
 14 15  2  0
 15 16  1  0
 15 17  1  0
 17 18  1  0
 17 19  2  0
  9 20  1  0
 20 21  2  0
 21 22  1  0
 22 23  2  0
 23 24  1  0
 24 25  1  0
 24 26  2  0
  8  2  1  0
 19 12  1  0
 26 20  1  0
 11  4  1  0
  1 27  1  0
  1 28  1  0
  1 29  1  0
  2 30  1  6
  3 31  1  0
  3 32  1  0
  6 33  1  0
  6 34  1  0
  7 35  1  0
  7 36  1  0
 13 37  1  0
 14 38  1  0
 19 39  1  0
 21 40  1  0
 22 41  1  0
 25 42  1  0
 25 43  1  0
 25 44  1  0
 26 45  1  0
M  END
$$$$
[H]c1c([H])c(C2=NN(C3([H])C([H])([H])C([H])([H])N(C(=O)C([H])([H])N4C(=O)C([H])([H])C([H])([H])C4=O)C([H])([H])C3([H])[H])C(=O)C2(C([H])([H])[H])C([H])([H])[H])c([H])c(OC([H])([H])[H])c1OC([H])([H])[H]
     RDKit          3D

 64 67  0  0  0  0  0  0  0  0999 V2000
    9.2009   -0.5555    0.0854 C   0  0  0  0  0  0  0  0  0  0  0  0
    8.0187   -1.2520   -0.1745 O   0  0  0  0  0  0  0  0  0  0  0  0
    6.7431   -0.7287   -0.0327 C   0  0  0  0  0  0  0  0  0  0  0  0
    6.5154    0.5662    0.3906 C   0  0  0  0  0  0  0  0  0  0  0  0
    5.1962    1.0016    0.5023 C   0  0  0  0  0  0  0  0  0  0  0  0
    4.1112    0.2046    0.2115 C   0  0  0  0  0  0  0  0  0  0  0  0
    4.3800   -1.1045   -0.2155 C   0  0  0  0  0  0  0  0  0  0  0  0
    5.6748   -1.5472   -0.3302 C   0  0  0  0  0  0  0  0  0  0  0  0
    5.9181   -2.8439   -0.7537 O   0  0  0  0  0  0  0  0  0  0  0  0
    4.8548   -3.7401   -1.0768 C   0  0  0  0  0  0  0  0  0  0  0  0
    2.7397    0.6757    0.3337 C   0  0  0  0  0  0  0  0  0  0  0  0
    1.7045   -0.0389    0.0719 N   0  0  0  0  0  0  0  0  0  0  0  0
    0.5288    0.6450    0.2693 N   0  0  0  0  0  0  0  0  0  0  0  0
   -0.8455    0.1825    0.0823 C   0  0  0  0  0  0  0  0  0  0  0  0
   -1.5708    0.2721    1.3769 C   0  0  0  0  0  0  0  0  0  0  0  0
   -2.8536    1.0589    1.3048 C   0  0  0  0  0  0  0  0  0  0  0  0
   -3.5802    0.6204    0.1397 N   0  0  0  0  0  0  0  0  0  0  0  0
   -2.9289    0.8375   -1.1521 C   0  0  0  0  0  0  0  0  0  0  0  0
   -1.4447    1.0034   -1.0217 C   0  0  0  0  0  0  0  0  0  0  0  0
   -4.8537    0.0103    0.1999 C   0  0  0  0  0  0  0  0  0  0  0  0
   -5.3871   -0.1628    1.3193 O   0  0  0  0  0  0  0  0  0  0  0  0
   -5.5694   -0.4263   -1.0112 C   0  0  0  0  0  0  0  0  0  0  0  0
   -6.8489   -1.0190   -0.6805 N   0  0  0  0  0  0  0  0  0  0  0  0
   -7.1287   -2.3872   -0.4056 C   0  0  0  0  0  0  0  0  0  0  0  0
   -6.2725   -3.3146   -0.3875 O   0  0  0  0  0  0  0  0  0  0  0  0
   -8.5697   -2.5920   -0.1392 C   0  0  0  0  0  0  0  0  0  0  0  0
   -9.2149   -1.2654   -0.4166 C   0  0  0  0  0  0  0  0  0  0  0  0
   -8.1003   -0.3203   -0.5664 C   0  0  0  0  0  0  0  0  0  0  0  0
   -8.2219    0.9384   -0.5917 O   0  0  0  0  0  0  0  0  0  0  0  0
    0.8405    1.9553    0.7105 C   0  0  0  0  0  0  0  0  0  0  0  0
    0.0908    2.9165    1.0107 O   0  0  0  0  0  0  0  0  0  0  0  0
    2.3300    2.0222    0.7684 C   0  0  0  0  0  0  0  0  0  0  0  0
    2.8187    3.1173   -0.1602 C   0  0  0  0  0  0  0  0  0  0  0  0
    2.7567    2.2624    2.2028 C   0  0  0  0  0  0  0  0  0  0  0  0
    9.4800    0.1260   -0.7383 H   0  0  0  0  0  0  0  0  0  0  0  0
   10.0219   -1.3154    0.1911 H   0  0  0  0  0  0  0  0  0  0  0  0
    9.1889    0.0095    1.0325 H   0  0  0  0  0  0  0  0  0  0  0  0
    7.3247    1.2329    0.6316 H   0  0  0  0  0  0  0  0  0  0  0  0
    5.0234    2.0207    0.8357 H   0  0  0  0  0  0  0  0  0  0  0  0
    3.5343   -1.7381   -0.4464 H   0  0  0  0  0  0  0  0  0  0  0  0
    4.2409   -3.1900   -1.8467 H   0  0  0  0  0  0  0  0  0  0  0  0
    5.2309   -4.6345   -1.5823 H   0  0  0  0  0  0  0  0  0  0  0  0
    4.1876   -3.9266   -0.2250 H   0  0  0  0  0  0  0  0  0  0  0  0
   -0.7805   -0.8741   -0.2657 H   0  0  0  0  0  0  0  0  0  0  0  0
   -1.8431   -0.7588    1.7395 H   0  0  0  0  0  0  0  0  0  0  0  0
   -0.9641    0.7155    2.2038 H   0  0  0  0  0  0  0  0  0  0  0  0
   -2.7032    2.1447    1.2297 H   0  0  0  0  0  0  0  0  0  0  0  0
   -3.4104    0.8706    2.2448 H   0  0  0  0  0  0  0  0  0  0  0  0
   -3.3388    1.8044   -1.5361 H   0  0  0  0  0  0  0  0  0  0  0  0
   -3.2289    0.0605   -1.8785 H   0  0  0  0  0  0  0  0  0  0  0  0
   -0.9958    0.6187   -1.9837 H   0  0  0  0  0  0  0  0  0  0  0  0
   -1.1215    2.0579   -0.9565 H   0  0  0  0  0  0  0  0  0  0  0  0
   -4.9377   -1.1231   -1.6342 H   0  0  0  0  0  0  0  0  0  0  0  0
   -5.7723    0.4441   -1.6997 H   0  0  0  0  0  0  0  0  0  0  0  0
   -8.7647   -2.9390    0.9078 H   0  0  0  0  0  0  0  0  0  0  0  0
   -8.9565   -3.3824   -0.8436 H   0  0  0  0  0  0  0  0  0  0  0  0
   -9.8590   -0.9628    0.4573 H   0  0  0  0  0  0  0  0  0  0  0  0
   -9.8962   -1.2829   -1.2877 H   0  0  0  0  0  0  0  0  0  0  0  0
    1.9570    3.5931   -0.6626 H   0  0  0  0  0  0  0  0  0  0  0  0
    3.3253    3.8764    0.4756 H   0  0  0  0  0  0  0  0  0  0  0  0
    3.4651    2.6778   -0.9198 H   0  0  0  0  0  0  0  0  0  0  0  0
    1.8719    2.2345    2.8597 H   0  0  0  0  0  0  0  0  0  0  0  0
    3.4270    1.4149    2.5212 H   0  0  0  0  0  0  0  0  0  0  0  0
    3.2615    3.2337    2.2656 H   0  0  0  0  0  0  0  0  0  0  0  0
  1  2  1  0
  2  3  1  0
  3  4  2  0
  4  5  1  0
  5  6  2  0
  6  7  1  0
  7  8  2  0
  8  9  1  0
  9 10  1  0
  6 11  1  0
 11 12  2  0
 12 13  1  0
 13 14  1  0
 14 15  1  0
 15 16  1  0
 16 17  1  0
 17 18  1  0
 18 19  1  0
 17 20  1  0
 20 21  2  0
 20 22  1  0
 22 23  1  0
 23 24  1  0
 24 25  2  0
 24 26  1  0
 26 27  1  0
 27 28  1  0
 28 29  2  0
 13 30  1  0
 30 31  2  0
 30 32  1  0
 32 33  1  0
 32 34  1  0
  8  3  1  0
 32 11  1  0
 19 14  1  0
 28 23  1  0
  1 35  1  0
  1 36  1  0
  1 37  1  0
  4 38  1  0
  5 39  1  0
  7 40  1  0
 10 41  1  0
 10 42  1  0
 10 43  1  0
 14 44  1  0
 15 45  1  0
 15 46  1  0
 16 47  1  0
 16 48  1  0
 18 49  1  0
 18 50  1  0
 19 51  1  0
 19 52  1  0
 22 53  1  0
 22 54  1  0
 26 55  1  0
 26 56  1  0
 27 57  1  0
 27 58  1  0
 33 59  1  0
 33 60  1  0
 33 61  1  0
 34 62  1  0
 34 63  1  0
 34 64  1  0
M  END
$$$$
[H]OC([H])([H])[C@@]1([H])O[C@]([H])(O[H])[C@]([H])(O[H])[C@@]([H])(O[H])[C@@]1([H])O[H]
     RDKit          3D

 24 24  0  0  0  0  0  0  0  0999 V2000
    3.0782   -0.1292   -0.2886 O   0  0  0  0  0  0  0  0  0  0  0  0
    2.0427    0.7754   -0.1103 C   0  0  0  0  0  0  0  0  0  0  0  0
    0.9787    0.2877    0.8164 C   0  0  1  0  0  0  0  0  0  0  0  0
   -0.0039    1.2402    0.9362 O   0  0  0  0  0  0  0  0  0  0  0  0
   -0.8328    1.3635   -0.1454 C   0  0  2  0  0  0  0  0  0  0  0  0
   -1.9545    2.1141    0.2758 O   0  0  0  0  0  0  0  0  0  0  0  0
   -1.4070    0.0185   -0.6025 C   0  0  2  0  0  0  0  0  0  0  0  0
   -2.7349    0.0908   -0.9148 O   0  0  0  0  0  0  0  0  0  0  0  0
   -1.0755   -0.9600    0.4917 C   0  0  1  0  0  0  0  0  0  0  0  0
   -1.6983   -2.1667    0.3855 O   0  0  0  0  0  0  0  0  0  0  0  0
    0.4558   -1.0790    0.4645 C   0  0  1  0  0  0  0  0  0  0  0  0
    0.7661   -1.4137   -0.8712 O   0  0  0  0  0  0  0  0  0  0  0  0
    3.2852   -0.1140   -1.2759 H   0  0  0  0  0  0  0  0  0  0  0  0
    1.6044    1.1406   -1.0520 H   0  0  0  0  0  0  0  0  0  0  0  0
    2.5052    1.6825    0.3760 H   0  0  0  0  0  0  0  0  0  0  0  0
    1.4544    0.1862    1.8344 H   0  0  0  0  0  0  0  0  0  0  0  0
   -0.3661    1.8923   -0.9943 H   0  0  0  0  0  0  0  0  0  0  0  0
   -1.7183    2.7728    0.9598 H   0  0  0  0  0  0  0  0  0  0  0  0
   -0.8200   -0.2856   -1.5024 H   0  0  0  0  0  0  0  0  0  0  0  0
   -2.9018   -0.4455   -1.7537 H   0  0  0  0  0  0  0  0  0  0  0  0
   -1.2916   -0.4251    1.4629 H   0  0  0  0  0  0  0  0  0  0  0  0
   -1.6664   -2.6066    1.2887 H   0  0  0  0  0  0  0  0  0  0  0  0
    0.8062   -1.8746    1.1450 H   0  0  0  0  0  0  0  0  0  0  0  0
    1.4945   -2.0645   -0.9258 H   0  0  0  0  0  0  0  0  0  0  0  0
  1  2  1  0
  2  3  1  0
  3  4  1  0
  4  5  1  0
  5  6  1  0
  5  7  1  0
  7  8  1  0
  7  9  1  0
  9 10  1  0
  9 11  1  0
 11 12  1  0
 11  3  1  0
  1 13  1  0
  2 14  1  0
  2 15  1  0
  3 16  1  1
  5 17  1  6
  6 18  1  0
  7 19  1  6
  8 20  1  0
  9 21  1  1
 10 22  1  0
 11 23  1  1
 12 24  1  0
M  END
$$$$
[H]OB(O[H])[C@@]([H])(N([H])C(=O)[C@@]([H])(N([H])C(=O)C([H])([H])N([H])[H])C([H])([H])c1c([H])c([H])c([H])c([H])c1[H])C([H])([H])C([H])(C([H])([H])[H])C([H])([H])[H]
     RDKit          3D

 50 50  0  0  0  0  0  0  0  0999 V2000
   -5.3606    0.1762    1.6408 C   0  0  0  0  0  0  0  0  0  0  0  0
   -4.8651    0.9358    0.4690 C   0  0  0  0  0  0  0  0  0  0  0  0
   -5.4279    2.3607    0.5741 C   0  0  0  0  0  0  0  0  0  0  0  0
   -3.4282    1.0465    0.2516 C   0  0  0  0  0  0  0  0  0  0  0  0
   -2.6665   -0.2189    0.0642 C   0  0  2  0  0  0  0  0  0  0  0  0
   -1.2533   -0.0143   -0.1442 N   0  0  0  0  0  0  0  0  0  0  0  0
   -0.2114   -0.5367    0.6151 C   0  0  0  0  0  0  0  0  0  0  0  0
   -0.3362   -1.2819    1.6202 O   0  0  0  0  0  0  0  0  0  0  0  0
    1.2010   -0.2242    0.2594 C   0  0  2  0  0  0  0  0  0  0  0  0
    1.3702   -0.7041   -1.1725 C   0  0  0  0  0  0  0  0  0  0  0  0
    2.7252   -0.4724   -1.6957 C   0  0  0  0  0  0  0  0  0  0  0  0
    3.0509    0.6899   -2.3395 C   0  0  0  0  0  0  0  0  0  0  0  0
    4.3561    0.8520   -2.8151 C   0  0  0  0  0  0  0  0  0  0  0  0
    5.3176   -0.1156   -2.6567 C   0  0  0  0  0  0  0  0  0  0  0  0
    4.9731   -1.2824   -2.0051 C   0  0  0  0  0  0  0  0  0  0  0  0
    3.6785   -1.4421   -1.5338 C   0  0  0  0  0  0  0  0  0  0  0  0
    2.1510   -0.8361    1.1427 N   0  0  0  0  0  0  0  0  0  0  0  0
    3.0430   -0.0400    1.8870 C   0  0  0  0  0  0  0  0  0  0  0  0
    3.0375    1.2256    1.8036 O   0  0  0  0  0  0  0  0  0  0  0  0
    4.0172   -0.7023    2.7950 C   0  0  0  0  0  0  0  0  0  0  0  0
    4.8520    0.2577    3.4788 N   0  0  0  0  0  0  0  0  0  0  0  0
   -3.2167   -0.9830   -1.2121 B   0  0  0  0  0  0  0  0  0  0  0  0
   -3.5959   -0.2830   -2.4352 O   0  0  0  0  0  0  0  0  0  0  0  0
   -3.4983   -2.4117   -1.1387 O   0  0  0  0  0  0  0  0  0  0  0  0
   -4.7421   -0.6871    1.9415 H   0  0  0  0  0  0  0  0  0  0  0  0
   -5.4449    0.8158    2.5465 H   0  0  0  0  0  0  0  0  0  0  0  0
   -6.3838   -0.2253    1.4674 H   0  0  0  0  0  0  0  0  0  0  0  0
   -5.3678    0.5176   -0.4467 H   0  0  0  0  0  0  0  0  0  0  0  0
   -6.5090    2.3061    0.3144 H   0  0  0  0  0  0  0  0  0  0  0  0
   -4.8607    3.0764   -0.0224 H   0  0  0  0  0  0  0  0  0  0  0  0
   -5.4097    2.5954    1.6779 H   0  0  0  0  0  0  0  0  0  0  0  0
   -3.2556    1.6870   -0.6396 H   0  0  0  0  0  0  0  0  0  0  0  0
   -2.9480    1.6136    1.1024 H   0  0  0  0  0  0  0  0  0  0  0  0
   -2.7363   -0.8796    0.9537 H   0  0  0  0  0  0  0  0  0  0  0  0
   -1.0213    0.5959   -0.9591 H   0  0  0  0  0  0  0  0  0  0  0  0
    1.3506    0.8898    0.3186 H   0  0  0  0  0  0  0  0  0  0  0  0
    0.6649   -0.1493   -1.8246 H   0  0  0  0  0  0  0  0  0  0  0  0
    1.0820   -1.7703   -1.2212 H   0  0  0  0  0  0  0  0  0  0  0  0
    2.3640    1.4986   -2.5074 H   0  0  0  0  0  0  0  0  0  0  0  0
    4.6397    1.7734   -3.3335 H   0  0  0  0  0  0  0  0  0  0  0  0
    6.3309    0.0226   -3.0320 H   0  0  0  0  0  0  0  0  0  0  0  0
    5.6864   -2.0552   -1.8618 H   0  0  0  0  0  0  0  0  0  0  0  0
    3.4650   -2.3810   -1.0289 H   0  0  0  0  0  0  0  0  0  0  0  0
    2.1907   -1.8695    1.2422 H   0  0  0  0  0  0  0  0  0  0  0  0
    3.4257   -1.2622    3.5534 H   0  0  0  0  0  0  0  0  0  0  0  0
    4.6259   -1.4311    2.2348 H   0  0  0  0  0  0  0  0  0  0  0  0
    5.5810    0.5769    2.8281 H   0  0  0  0  0  0  0  0  0  0  0  0
    4.2974    1.0916    3.7709 H   0  0  0  0  0  0  0  0  0  0  0  0
   -2.8491    0.3543   -2.6653 H   0  0  0  0  0  0  0  0  0  0  0  0
   -4.0887   -2.7003   -1.8624 H   0  0  0  0  0  0  0  0  0  0  0  0
  1  2  1  0
  2  3  1  0
  2  4  1  0
  4  5  1  0
  5  6  1  0
  6  7  1  0
  7  8  2  0
  7  9  1  0
  9 10  1  0
 10 11  1  0
 11 12  2  0
 12 13  1  0
 13 14  2  0
 14 15  1  0
 15 16  2  0
  9 17  1  0
 17 18  1  0
 18 19  2  0
 18 20  1  0
 20 21  1  0
  5 22  1  0
 22 23  1  0
 22 24  1  0
 16 11  1  0
  1 25  1  0
  1 26  1  0
  1 27  1  0
  2 28  1  0
  3 29  1  0
  3 30  1  0
  3 31  1  0
  4 32  1  0
  4 33  1  0
  5 34  1  1
  6 35  1  0
  9 36  1  6
 10 37  1  0
 10 38  1  0
 12 39  1  0
 13 40  1  0
 14 41  1  0
 15 42  1  0
 16 43  1  0
 17 44  1  0
 20 45  1  0
 20 46  1  0
 21 47  1  0
 21 48  1  0
 23 49  1  0
 24 50  1  0
M  END
$$$$
[H]c1nc(N2C([H])([H])C([H])([H])N(C(=O)c3c([H])c([H])c(Cl)c(Cl)c3[H])C([H])([H])[C@]2([H])C([H])([H])[H])c([H])c([H])c1C(F)(F)F
     RDKit          3D

 43 45  0  0  0  0  0  0  0  0999 V2000
   -1.5239    2.4391    0.4169 C   0  0  0  0  0  0  0  0  0  0  0  0
   -0.5666    1.4471   -0.2046 C   0  0  1  0  0  0  0  0  0  0  0  0
    0.6342    1.2962    0.6581 C   0  0  0  0  0  0  0  0  0  0  0  0
    1.5601    0.2663    0.1531 N   0  0  0  0  0  0  0  0  0  0  0  0
    1.0340   -0.9096   -0.4673 C   0  0  0  0  0  0  0  0  0  0  0  0
   -0.4031   -0.9444   -0.8447 C   0  0  0  0  0  0  0  0  0  0  0  0
   -1.1728    0.1638   -0.4413 N   0  0  0  0  0  0  0  0  0  0  0  0
   -2.5636    0.0270   -0.2609 C   0  0  0  0  0  0  0  0  0  0  0  0
   -3.2211    0.0568    0.9274 C   0  0  0  0  0  0  0  0  0  0  0  0
   -4.5850   -0.0796    1.0318 C   0  0  0  0  0  0  0  0  0  0  0  0
   -5.3102   -0.2441   -0.1505 C   0  0  0  0  0  0  0  0  0  0  0  0
   -4.6403   -0.2681   -1.3423 C   0  0  0  0  0  0  0  0  0  0  0  0
   -3.3227   -0.1376   -1.3859 N   0  0  0  0  0  0  0  0  0  0  0  0
   -6.7734   -0.3690   -0.1047 C   0  0  0  0  0  0  0  0  0  0  0  0
   -7.1411   -1.7161   -0.1638 F   0  0  0  0  0  0  0  0  0  0  0  0
   -7.3048    0.2319   -1.2013 F   0  0  0  0  0  0  0  0  0  0  0  0
   -7.3146    0.2112    1.0363 F   0  0  0  0  0  0  0  0  0  0  0  0
    2.9197    0.5544    0.2697 C   0  0  0  0  0  0  0  0  0  0  0  0
    3.1042    1.7715    0.7829 O   0  0  0  0  0  0  0  0  0  0  0  0
    4.1162   -0.1576   -0.0331 C   0  0  0  0  0  0  0  0  0  0  0  0
    5.3343    0.5472    0.0160 C   0  0  0  0  0  0  0  0  0  0  0  0
    6.5348   -0.0657   -0.2062 C   0  0  0  0  0  0  0  0  0  0  0  0
    6.6030   -1.4092   -0.4851 C   0  0  0  0  0  0  0  0  0  0  0  0
    8.0965   -2.2609   -0.7607 Cl  0  0  0  0  0  0  0  0  0  0  0  0
    5.4271   -2.1147   -0.5366 C   0  0  0  0  0  0  0  0  0  0  0  0
    5.4383   -3.8541   -0.9083 Cl  0  0  0  0  0  0  0  0  0  0  0  0
    4.1977   -1.4823   -0.3118 C   0  0  0  0  0  0  0  0  0  0  0  0
   -1.0313    3.4390    0.3111 H   0  0  0  0  0  0  0  0  0  0  0  0
   -1.5696    2.2246    1.5031 H   0  0  0  0  0  0  0  0  0  0  0  0
   -2.4992    2.4292   -0.0768 H   0  0  0  0  0  0  0  0  0  0  0  0
   -0.3088    1.8557   -1.2223 H   0  0  0  0  0  0  0  0  0  0  0  0
    1.1701    2.2552    0.6761 H   0  0  0  0  0  0  0  0  0  0  0  0
    0.3461    0.9601    1.6739 H   0  0  0  0  0  0  0  0  0  0  0  0
    1.6456   -1.1374   -1.3646 H   0  0  0  0  0  0  0  0  0  0  0  0
    1.2041   -1.7681    0.2581 H   0  0  0  0  0  0  0  0  0  0  0  0
   -0.4723   -0.9996   -1.9929 H   0  0  0  0  0  0  0  0  0  0  0  0
   -0.8645   -1.9288   -0.5203 H   0  0  0  0  0  0  0  0  0  0  0  0
   -2.6364    0.1706    1.8407 H   0  0  0  0  0  0  0  0  0  0  0  0
   -5.0846   -0.0545    1.9817 H   0  0  0  0  0  0  0  0  0  0  0  0
   -5.2081   -0.4058   -2.2605 H   0  0  0  0  0  0  0  0  0  0  0  0
    5.3296    1.6186    0.2510 H   0  0  0  0  0  0  0  0  0  0  0  0
    7.4863    0.4813   -0.1684 H   0  0  0  0  0  0  0  0  0  0  0  0
    3.3360   -2.1399   -0.3453 H   0  0  0  0  0  0  0  0  0  0  0  0
  1  2  1  0
  2  3  1  0
  3  4  1  0
  4  5  1  0
  5  6  1  0
  6  7  1  0
  7  8  1  0
  8  9  2  0
  9 10  1  0
 10 11  2  0
 11 12  1  0
 12 13  2  0
 11 14  1  0
 14 15  1  0
 14 16  1  0
 14 17  1  0
  4 18  1  0
 18 19  2  0
 18 20  1  0
 20 21  2  0
 21 22  1  0
 22 23  2  0
 23 24  1  0
 23 25  1  0
 25 26  1  0
 25 27  2  0
  7  2  1  0
 13  8  1  0
 27 20  1  0
  1 28  1  0
  1 29  1  0
  1 30  1  0
  2 31  1  6
  3 32  1  0
  3 33  1  0
  5 34  1  0
  5 35  1  0
  6 36  1  0
  6 37  1  0
  9 38  1  0
 10 39  1  0
 12 40  1  0
 21 41  1  0
 22 42  1  0
 27 43  1  0
M  END
$$$$
[H]O[C@]1([H])C([H])([H])N(C(=O)c2[se]c(-c3c([H])c([H])c(OC([H])([H])C([H])(C([H])([H])[H])C([H])([H])[H])c(C#N)c3[H])nc2C([H])([H])[H])C([H])([H])C1([H])[H]
     RDKit          3D

 50 52  0  0  0  0  0  0  0  0999 V2000
    6.8654    0.7770   -1.6494 C   0  0  0  0  0  0  0  0  0  0  0  0
    7.3211   -0.0668   -0.5279 C   0  0  0  0  0  0  0  0  0  0  0  0
    7.4310   -1.5288   -0.9894 C   0  0  0  0  0  0  0  0  0  0  0  0
    6.6106    0.0506    0.7724 C   0  0  0  0  0  0  0  0  0  0  0  0
    5.3443   -0.1926    0.9484 O   0  0  0  0  0  0  0  0  0  0  0  0
    4.0648   -0.0597    0.7998 C   0  0  0  0  0  0  0  0  0  0  0  0
    3.4816    0.8770   -0.0083 C   0  0  0  0  0  0  0  0  0  0  0  0
    2.1167    1.0250   -0.1708 C   0  0  0  0  0  0  0  0  0  0  0  0
    1.3018    0.1867    0.5164 C   0  0  0  0  0  0  0  0  0  0  0  0
    1.8395   -0.7714    1.3419 C   0  0  0  0  0  0  0  0  0  0  0  0
    3.2021   -0.9165    1.5017 C   0  0  0  0  0  0  0  0  0  0  0  0
    3.7235   -1.9313    2.3749 C   0  0  0  0  0  0  0  0  0  0  0  0
    4.1400   -2.7251    3.0741 N   0  0  0  0  0  0  0  0  0  0  0  0
   -0.1477    0.2332    0.4374 C   0  0  0  0  0  0  0  0  0  0  0  0
   -1.1551   -0.3440    0.8985 N   0  0  0  0  0  0  0  0  0  0  0  0
   -2.4077   -0.2100    0.7507 C   0  0  0  0  0  0  0  0  0  0  0  0
   -3.3369   -1.1445    1.5801 C   0  0  0  0  0  0  0  0  0  0  0  0
   -3.0428    0.6688   -0.0126 C   0  0  0  0  0  0  0  0  0  0  0  0
   -1.1763    1.5859   -0.7353 Se  0  0  0  0  0  2  0  0  0  0  0  0
   -4.2346    1.1871   -0.5515 C   0  0  0  0  0  0  0  0  0  0  0  0
   -4.1346    2.3052   -1.2920 O   0  0  0  0  0  0  0  0  0  0  0  0
   -5.5545    0.7863   -0.4926 N   0  0  0  0  0  0  0  0  0  0  0  0
   -6.6437    1.5790   -1.1618 C   0  0  0  0  0  0  0  0  0  0  0  0
   -7.6104    0.5389   -1.6672 C   0  0  0  0  0  0  0  0  0  0  0  0
   -7.6278   -0.4068   -0.4842 C   0  0  2  0  0  0  0  0  0  0  0  0
   -8.5262    0.0626    0.4766 O   0  0  0  0  0  0  0  0  0  0  0  0
   -6.2152   -0.3249    0.0786 C   0  0  0  0  0  0  0  0  0  0  0  0
    6.1541    0.2534   -2.3526 H   0  0  0  0  0  0  0  0  0  0  0  0
    7.7393    1.0483   -2.3119 H   0  0  0  0  0  0  0  0  0  0  0  0
    6.4516    1.7471   -1.3080 H   0  0  0  0  0  0  0  0  0  0  0  0
    8.3991    0.2178   -0.3223 H   0  0  0  0  0  0  0  0  0  0  0  0
    8.3081   -1.6350   -1.6498 H   0  0  0  0  0  0  0  0  0  0  0  0
    6.4815   -1.8258   -1.5099 H   0  0  0  0  0  0  0  0  0  0  0  0
    7.5758   -2.1193   -0.0585 H   0  0  0  0  0  0  0  0  0  0  0  0
    7.2415   -0.5741    1.4996 H   0  0  0  0  0  0  0  0  0  0  0  0
    6.8635    1.1035    1.1540 H   0  0  0  0  0  0  0  0  0  0  0  0
    4.1141    1.5645   -0.5610 H   0  0  0  0  0  0  0  0  0  0  0  0
    1.6792    1.7717   -0.8147 H   0  0  0  0  0  0  0  0  0  0  0  0
    1.1894   -1.4571    1.9047 H   0  0  0  0  0  0  0  0  0  0  0  0
   -3.7665   -1.9129    0.9549 H   0  0  0  0  0  0  0  0  0  0  0  0
   -4.0223   -0.4926    2.1484 H   0  0  0  0  0  0  0  0  0  0  0  0
   -2.7568   -1.6806    2.3551 H   0  0  0  0  0  0  0  0  0  0  0  0
   -6.2473    2.1428   -2.0026 H   0  0  0  0  0  0  0  0  0  0  0  0
   -7.1450    2.1550   -0.3745 H   0  0  0  0  0  0  0  0  0  0  0  0
   -8.6346    0.9235   -1.7716 H   0  0  0  0  0  0  0  0  0  0  0  0
   -7.2702   -0.0001   -2.5521 H   0  0  0  0  0  0  0  0  0  0  0  0
   -7.9226   -1.4201   -0.7409 H   0  0  0  0  0  0  0  0  0  0  0  0
   -8.0367    0.5944    1.1511 H   0  0  0  0  0  0  0  0  0  0  0  0
   -6.2626   -0.3284    1.1863 H   0  0  0  0  0  0  0  0  0  0  0  0
   -5.7614   -1.3167   -0.2168 H   0  0  0  0  0  0  0  0  0  0  0  0
  1  2  1  0
  2  3  1  0
  2  4  1  0
  4  5  1  0
  5  6  1  0
  6  7  2  0
  7  8  1  0
  8  9  2  0
  9 10  1  0
 10 11  2  0
 11 12  1  0
 12 13  3  0
  9 14  1  0
 14 15  2  0
 15 16  1  0
 16 17  1  0
 16 18  2  0
 18 19  1  0
 18 20  1  0
 20 21  2  0
 20 22  1  0
 22 23  1  0
 23 24  1  0
 24 25  1  0
 25 26  1  0
 25 27  1  0
 11  6  1  0
 19 14  1  0
 27 22  1  0
  1 28  1  0
  1 29  1  0
  1 30  1  0
  2 31  1  0
  3 32  1  0
  3 33  1  0
  3 34  1  0
  4 35  1  0
  4 36  1  0
  7 37  1  0
  8 38  1  0
 10 39  1  0
 17 40  1  0
 17 41  1  0
 17 42  1  0
 23 43  1  0
 23 44  1  0
 24 45  1  0
 24 46  1  0
 25 47  1  6
 26 48  1  0
 27 49  1  0
 27 50  1  0
M  END
$$$$
[H]OC1(C(F)(F)F)c2c([H])c([H])c([H])c([H])c2-c2c(-c3c([H])nn(C([H])([H])[H])c3[H])c([H])c(C(=O)N3C([H])([H])C([H])([H])OC([H])([H])C3([H])[H])c([H])c21
     RDKit          3D

 52 56  0  0  0  0  0  0  0  0999 V2000
   -3.3502    5.1954   -1.6480 C   0  0  0  0  0  0  0  0  0  0  0  0
   -2.8421    4.1475   -0.7544 N   0  0  0  0  0  0  0  0  0  0  0  0
   -2.0881    3.1097   -1.1463 C   0  0  0  0  0  0  0  0  0  0  0  0
   -1.8243    2.3666   -0.0212 C   0  0  0  0  0  0  0  0  0  0  0  0
   -2.4401    2.9906    1.0416 C   0  0  0  0  0  0  0  0  0  0  0  0
   -3.0501    4.0750    0.5459 N   0  0  0  0  0  0  0  0  0  0  0  0
   -0.9590    1.1640    0.0006 C   0  0  0  0  0  0  0  0  0  0  0  0
    0.4132    1.3964    0.0295 C   0  0  0  0  0  0  0  0  0  0  0  0
    1.3680    0.3719    0.1190 C   0  0  0  0  0  0  0  0  0  0  0  0
    0.8543   -0.8945    0.1773 C   0  0  0  0  0  0  0  0  0  0  0  0
   -0.5156   -1.1883    0.1516 C   0  0  0  0  0  0  0  0  0  0  0  0
   -1.4138   -0.1251    0.0595 C   0  0  0  0  0  0  0  0  0  0  0  0
   -2.7415   -0.7174    0.0059 C   0  0  0  0  0  0  0  0  0  0  0  0
   -3.9892   -0.0969   -0.1271 C   0  0  0  0  0  0  0  0  0  0  0  0
   -5.1321   -0.8855   -0.1929 C   0  0  0  0  0  0  0  0  0  0  0  0
   -5.0751   -2.2503   -0.1325 C   0  0  0  0  0  0  0  0  0  0  0  0
   -3.8358   -2.8203   -0.0029 C   0  0  0  0  0  0  0  0  0  0  0  0
   -2.6572   -2.0785    0.0685 C   0  0  0  0  0  0  0  0  0  0  0  0
   -1.2512   -2.4682    0.2159 C   0  0  0  0  0  0  0  0  0  0  0  0
   -0.9172   -3.3185   -0.8354 O   0  0  0  0  0  0  0  0  0  0  0  0
   -0.9716   -3.1082    1.5581 C   0  0  0  0  0  0  0  0  0  0  0  0
   -1.6342   -4.3131    1.6956 F   0  0  0  0  0  0  0  0  0  0  0  0
   -1.3029   -2.2702    2.5888 F   0  0  0  0  0  0  0  0  0  0  0  0
    0.3721   -3.3923    1.6398 F   0  0  0  0  0  0  0  0  0  0  0  0
    2.7670    0.7341    0.1325 C   0  0  0  0  0  0  0  0  0  0  0  0
    3.0020    2.0169    0.0206 O   0  0  0  0  0  0  0  0  0  0  0  0
    3.9014   -0.0681    0.2461 N   0  0  0  0  0  0  0  0  0  0  0  0
    4.0160   -1.4889    0.3920 C   0  0  0  0  0  0  0  0  0  0  0  0
    5.4970   -1.8232    0.6245 C   0  0  0  0  0  0  0  0  0  0  0  0
    6.2485   -1.4469   -0.4557 O   0  0  0  0  0  0  0  0  0  0  0  0
    6.0631   -0.1103   -0.8059 C   0  0  0  0  0  0  0  0  0  0  0  0
    5.2313    0.6209    0.2089 C   0  0  0  0  0  0  0  0  0  0  0  0
   -2.5439    5.9620   -1.8219 H   0  0  0  0  0  0  0  0  0  0  0  0
   -4.2172    5.6632   -1.1500 H   0  0  0  0  0  0  0  0  0  0  0  0
   -3.6940    4.7770   -2.6118 H   0  0  0  0  0  0  0  0  0  0  0  0
   -1.7500    2.9024   -2.1795 H   0  0  0  0  0  0  0  0  0  0  0  0
   -2.4179    2.6423    2.0857 H   0  0  0  0  0  0  0  0  0  0  0  0
    0.7730    2.4203   -0.0186 H   0  0  0  0  0  0  0  0  0  0  0  0
    1.4975   -1.7463    0.2363 H   0  0  0  0  0  0  0  0  0  0  0  0
   -4.1133    0.9661   -0.1974 H   0  0  0  0  0  0  0  0  0  0  0  0
   -6.1225   -0.4224   -0.2966 H   0  0  0  0  0  0  0  0  0  0  0  0
   -5.9925   -2.8613   -0.1864 H   0  0  0  0  0  0  0  0  0  0  0  0
   -3.7304   -3.8928    0.0495 H   0  0  0  0  0  0  0  0  0  0  0  0
   -1.3156   -4.2072   -0.6317 H   0  0  0  0  0  0  0  0  0  0  0  0
    3.6647   -2.0003   -0.5349 H   0  0  0  0  0  0  0  0  0  0  0  0
    3.5083   -1.8804    1.3210 H   0  0  0  0  0  0  0  0  0  0  0  0
    5.5280   -2.9396    0.7237 H   0  0  0  0  0  0  0  0  0  0  0  0
    5.7869   -1.3257    1.5636 H   0  0  0  0  0  0  0  0  0  0  0  0
    5.5792   -0.0502   -1.8145 H   0  0  0  0  0  0  0  0  0  0  0  0
    7.0397    0.4062   -0.9186 H   0  0  0  0  0  0  0  0  0  0  0  0
    5.0732    1.6431   -0.1986 H   0  0  0  0  0  0  0  0  0  0  0  0
    5.7039    0.6195    1.1809 H   0  0  0  0  0  0  0  0  0  0  0  0
  1  2  1  0
  2  3  1  0
  3  4  2  0
  4  5  1  0
  5  6  2  0
  4  7  1  0
  7  8  2  0
  8  9  1  0
  9 10  2  0
 10 11  1  0
 11 12  2  0
 12 13  1  0
 13 14  2  0
 14 15  1  0
 15 16  2  0
 16 17  1  0
 17 18  2  0
 18 19  1  0
 19 20  1  0
 19 21  1  0
 21 22  1  0
 21 23  1  0
 21 24  1  0
  9 25  1  0
 25 26  2  0
 25 27  1  0
 27 28  1  0
 28 29  1  0
 29 30  1  0
 30 31  1  0
 31 32  1  0
  6  2  1  0
 12  7  1  0
 18 13  1  0
 32 27  1  0
 19 11  1  0
  1 33  1  0
  1 34  1  0
  1 35  1  0
  3 36  1  0
  5 37  1  0
  8 38  1  0
 10 39  1  0
 14 40  1  0
 15 41  1  0
 16 42  1  0
 17 43  1  0
 20 44  1  0
 28 45  1  0
 28 46  1  0
 29 47  1  0
 29 48  1  0
 31 49  1  0
 31 50  1  0
 32 51  1  0
 32 52  1  0
M  END
$$$$
[H]O[C@@]1([H])C([H])([H])C([H])([H])[C@@]2([H])[C@@]3([H])C([H])([H])C([H])([H])[C@@]([H])(OC(=O)c4c([H])c([H])c(C(C([H])([H])[H])(C([H])([H])[H])C([H])([H])[H])c([H])c4[H])[C@@]4(C([H])([H])[H])C(=O)O[C@]([H])(C([H])([H])[H])[C@@]4(C([H])([H])[H])C([H])([H])C([H])([H])[C@]3([H])[C@@]2(C([H])([H])[H])C([H])([H])C1([H])[H]
     RDKit          3D

 86 90  0  0  0  0  0  0  0  0999 V2000
    0.9072   -5.2210    1.8933 C   0  0  0  0  0  0  0  0  0  0  0  0
    1.1218   -4.4647    0.6285 C   0  0  1  0  0  0  0  0  0  0  0  0
    0.1547   -4.6705   -0.3635 O   0  0  0  0  0  0  0  0  0  0  0  0
    0.0298   -3.4838   -1.0766 C   0  0  0  0  0  0  0  0  0  0  0  0
   -0.0964   -3.3558   -2.3253 O   0  0  0  0  0  0  0  0  0  0  0  0
    0.0824   -2.4686    0.0125 C   0  0  2  0  0  0  0  0  0  0  0  0
   -1.1818   -2.7922    0.8420 C   0  0  0  0  0  0  0  0  0  0  0  0
   -0.0596   -1.0840   -0.4121 C   0  0  1  0  0  0  0  0  0  0  0  0
    0.6777   -0.6327   -1.6419 C   0  0  0  0  0  0  0  0  0  0  0  0
    1.5403    0.5855   -1.4515 C   0  0  0  0  0  0  0  0  0  0  0  0
    2.3185    0.6937   -0.2036 C   0  0  2  0  0  0  0  0  0  0  0  0
    3.3755    1.7972   -0.2026 C   0  0  2  0  0  0  0  0  0  0  0  0
    3.8648    2.2002   -1.5484 C   0  0  0  0  0  0  0  0  0  0  0  0
    5.0820    3.0789   -1.4904 C   0  0  0  0  0  0  0  0  0  0  0  0
    5.6714    3.2618   -0.1276 C   0  0  2  0  0  0  0  0  0  0  0  0
    6.6196    4.3017   -0.2512 O   0  0  0  0  0  0  0  0  0  0  0  0
    6.4599    2.0459    0.2594 C   0  0  0  0  0  0  0  0  0  0  0  0
    5.6787    0.8159   -0.0563 C   0  0  0  0  0  0  0  0  0  0  0  0
    4.2800    0.8529    0.5251 C   0  0  1  0  0  0  0  0  0  0  0  0
    4.2432    1.0694    1.9972 C   0  0  0  0  0  0  0  0  0  0  0  0
    3.4383   -0.2856   -0.0320 C   0  0  1  0  0  0  0  0  0  0  0  0
    3.1085   -1.3124    1.0524 C   0  0  0  0  0  0  0  0  0  0  0  0
    2.5979   -2.5655    0.3904 C   0  0  0  0  0  0  0  0  0  0  0  0
    1.2066   -2.9459    0.8269 C   0  0  2  0  0  0  0  0  0  0  0  0
    1.0968   -2.6020    2.3012 C   0  0  0  0  0  0  0  0  0  0  0  0
   -1.4498   -0.6805   -0.4579 O   0  0  0  0  0  0  0  0  0  0  0  0
   -1.9843    0.4496    0.0360 C   0  0  0  0  0  0  0  0  0  0  0  0
   -1.2000    1.2791    0.5496 O   0  0  0  0  0  0  0  0  0  0  0  0
   -3.3978    0.7265   -0.0022 C   0  0  0  0  0  0  0  0  0  0  0  0
   -4.2703   -0.2706   -0.3463 C   0  0  0  0  0  0  0  0  0  0  0  0
   -5.6470   -0.0275   -0.3885 C   0  0  0  0  0  0  0  0  0  0  0  0
   -6.1830    1.2155   -0.0932 C   0  0  0  0  0  0  0  0  0  0  0  0
   -5.2656    2.2173    0.2548 C   0  0  0  0  0  0  0  0  0  0  0  0
   -3.9027    1.9783    0.2993 C   0  0  0  0  0  0  0  0  0  0  0  0
   -7.6278    1.5305   -0.1094 C   0  0  0  0  0  0  0  0  0  0  0  0
   -8.4818    0.3404   -0.3548 C   0  0  0  0  0  0  0  0  0  0  0  0
   -8.0384    2.0974    1.2491 C   0  0  0  0  0  0  0  0  0  0  0  0
   -7.9226    2.6145   -1.1394 C   0  0  0  0  0  0  0  0  0  0  0  0
   -0.0875   -5.1731    2.3394 H   0  0  0  0  0  0  0  0  0  0  0  0
    1.0938   -6.2910    1.6615 H   0  0  0  0  0  0  0  0  0  0  0  0
    1.7315   -4.9365    2.5927 H   0  0  0  0  0  0  0  0  0  0  0  0
    2.0683   -4.8738    0.1806 H   0  0  0  0  0  0  0  0  0  0  0  0
   -2.0834   -2.3530    0.4199 H   0  0  0  0  0  0  0  0  0  0  0  0
   -1.3643   -3.9076    0.8012 H   0  0  0  0  0  0  0  0  0  0  0  0
   -1.0975   -2.4735    1.8747 H   0  0  0  0  0  0  0  0  0  0  0  0
    0.3278   -0.3956    0.3505 H   0  0  0  0  0  0  0  0  0  0  0  0
    1.3255   -1.4003   -2.0996 H   0  0  0  0  0  0  0  0  0  0  0  0
   -0.0280   -0.3451   -2.4801 H   0  0  0  0  0  0  0  0  0  0  0  0
    2.1761    0.6935   -2.3743 H   0  0  0  0  0  0  0  0  0  0  0  0
    0.8584    1.4704   -1.5156 H   0  0  0  0  0  0  0  0  0  0  0  0
    1.7206    0.7691    0.7443 H   0  0  0  0  0  0  0  0  0  0  0  0
    3.0213    2.6691    0.3886 H   0  0  0  0  0  0  0  0  0  0  0  0
    3.0424    2.8292   -2.0041 H   0  0  0  0  0  0  0  0  0  0  0  0
    4.1130    1.3403   -2.2073 H   0  0  0  0  0  0  0  0  0  0  0  0
    4.8429    4.1281   -1.8579 H   0  0  0  0  0  0  0  0  0  0  0  0
    5.8953    2.7464   -2.1800 H   0  0  0  0  0  0  0  0  0  0  0  0
    4.9422    3.5600    0.6345 H   0  0  0  0  0  0  0  0  0  0  0  0
    6.5135    4.9183    0.5054 H   0  0  0  0  0  0  0  0  0  0  0  0
    7.3978    2.0015   -0.3632 H   0  0  0  0  0  0  0  0  0  0  0  0
    6.7139    2.0569    1.3426 H   0  0  0  0  0  0  0  0  0  0  0  0
    5.6171    0.5298   -1.0996 H   0  0  0  0  0  0  0  0  0  0  0  0
    6.1748   -0.0500    0.4703 H   0  0  0  0  0  0  0  0  0  0  0  0
    3.9507    2.1267    2.2152 H   0  0  0  0  0  0  0  0  0  0  0  0
    5.2647    0.9820    2.4617 H   0  0  0  0  0  0  0  0  0  0  0  0
    3.5479    0.4555    2.5709 H   0  0  0  0  0  0  0  0  0  0  0  0
    3.8689   -0.7069   -0.9481 H   0  0  0  0  0  0  0  0  0  0  0  0
    4.0562   -1.4674    1.6031 H   0  0  0  0  0  0  0  0  0  0  0  0
    2.3904   -0.8956    1.7762 H   0  0  0  0  0  0  0  0  0  0  0  0
    3.2489   -3.4038    0.8076 H   0  0  0  0  0  0  0  0  0  0  0  0
    2.7797   -2.6268   -0.6906 H   0  0  0  0  0  0  0  0  0  0  0  0
    0.6515   -1.5872    2.3943 H   0  0  0  0  0  0  0  0  0  0  0  0
    0.4830   -3.3110    2.8761 H   0  0  0  0  0  0  0  0  0  0  0  0
    2.0903   -2.6259    2.7735 H   0  0  0  0  0  0  0  0  0  0  0  0
   -3.9703   -1.2869   -0.5956 H   0  0  0  0  0  0  0  0  0  0  0  0
   -6.3014   -0.8236   -0.6522 H   0  0  0  0  0  0  0  0  0  0  0  0
   -5.6653    3.2031    0.4835 H   0  0  0  0  0  0  0  0  0  0  0  0
   -3.2524    2.8261    0.5745 H   0  0  0  0  0  0  0  0  0  0  0  0
   -8.0844   -0.3794   -1.0553 H   0  0  0  0  0  0  0  0  0  0  0  0
   -8.8056   -0.1598    0.5992 H   0  0  0  0  0  0  0  0  0  0  0  0
   -9.4794    0.6624   -0.8128 H   0  0  0  0  0  0  0  0  0  0  0  0
   -8.1055    1.2735    1.9836 H   0  0  0  0  0  0  0  0  0  0  0  0
   -7.3252    2.8756    1.5635 H   0  0  0  0  0  0  0  0  0  0  0  0
   -9.0286    2.5481    1.1759 H   0  0  0  0  0  0  0  0  0  0  0  0
   -9.0326    2.6924   -1.1986 H   0  0  0  0  0  0  0  0  0  0  0  0
   -7.5597    2.2747   -2.1373 H   0  0  0  0  0  0  0  0  0  0  0  0
   -7.4840    3.5523   -0.8082 H   0  0  0  0  0  0  0  0  0  0  0  0
  1  2  1  0
  2  3  1  0
  3  4  1  0
  4  5  2  0
  4  6  1  0
  6  7  1  1
  6  8  1  0
  8  9  1  0
  9 10  1  0
 10 11  1  0
 11 12  1  0
 12 13  1  0
 13 14  1  0
 14 15  1  0
 15 16  1  0
 15 17  1  0
 17 18  1  0
 18 19  1  0
 19 20  1  1
 19 21  1  0
 21 22  1  0
 22 23  1  0
 23 24  1  0
 24 25  1  1
  8 26  1  0
 26 27  1  0
 27 28  2  0
 27 29  1  0
 29 30  2  0
 30 31  1  0
 31 32  2  0
 32 33  1  0
 33 34  2  0
 32 35  1  0
 35 36  1  0
 35 37  1  0
 35 38  1  0
 24  2  1  0
 34 29  1  0
 24  6  1  0
 21 11  1  0
 19 12  1  0
  1 39  1  0
  1 40  1  0
  1 41  1  0
  2 42  1  6
  7 43  1  0
  7 44  1  0
  7 45  1  0
  8 46  1  1
  9 47  1  0
  9 48  1  0
 10 49  1  0
 10 50  1  0
 11 51  1  1
 12 52  1  1
 13 53  1  0
 13 54  1  0
 14 55  1  0
 14 56  1  0
 15 57  1  1
 16 58  1  0
 17 59  1  0
 17 60  1  0
 18 61  1  0
 18 62  1  0
 20 63  1  0
 20 64  1  0
 20 65  1  0
 21 66  1  6
 22 67  1  0
 22 68  1  0
 23 69  1  0
 23 70  1  0
 25 71  1  0
 25 72  1  0
 25 73  1  0
 30 74  1  0
 31 75  1  0
 33 76  1  0
 34 77  1  0
 36 78  1  0
 36 79  1  0
 36 80  1  0
 37 81  1  0
 37 82  1  0
 37 83  1  0
 38 84  1  0
 38 85  1  0
 38 86  1  0
M  END
$$$$
[H]N=C(N([H])[H])N([H])C([H])([H])C([H])([H])C([H])([H])[C@@]([H])(C([H])=O)N([H])C(=O)[C@@]1([H])N(C(=O)[C@@]([H])(c2c([H])c([H])c([H])c([H])c2[H])N([H])C(=O)OC(C([H])([H])[H])(C([H])([H])[H])C([H])([H])[H])C([H])([H])C([H])([H])C1([H])[H]
     RDKit          3D

 71 72  0  0  0  0  0  0  0  0999 V2000
   -7.6440    0.1562   -0.3318 C   0  0  0  0  0  0  0  0  0  0  0  0
   -6.8987    0.8167    0.7618 C   0  0  0  0  0  0  0  0  0  0  0  0
   -6.3507    2.1334    0.2296 C   0  0  0  0  0  0  0  0  0  0  0  0
   -7.7830    1.1499    1.9418 C   0  0  0  0  0  0  0  0  0  0  0  0
   -5.8400    0.0043    1.2411 O   0  0  0  0  0  0  0  0  0  0  0  0
   -4.8368   -0.3373    0.3756 C   0  0  0  0  0  0  0  0  0  0  0  0
   -4.9691    0.0872   -0.8098 O   0  0  0  0  0  0  0  0  0  0  0  0
   -3.6620   -1.1043    0.6773 N   0  0  0  0  0  0  0  0  0  0  0  0
   -2.7674   -1.2642   -0.4796 C   0  0  1  0  0  0  0  0  0  0  0  0
   -1.3718   -1.1055   -0.1208 C   0  0  0  0  0  0  0  0  0  0  0  0
   -0.6839   -2.1882    0.0049 O   0  0  0  0  0  0  0  0  0  0  0  0
   -0.7568    0.1251    0.0979 N   0  0  0  0  0  0  0  0  0  0  0  0
   -1.5501    1.3758    0.3572 C   0  0  0  0  0  0  0  0  0  0  0  0
   -0.7310    2.0679    1.4915 C   0  0  0  0  0  0  0  0  0  0  0  0
    0.4694    1.0831    1.6343 C   0  0  0  0  0  0  0  0  0  0  0  0
    0.5559    0.6797    0.1858 C   0  0  1  0  0  0  0  0  0  0  0  0
    1.7251    0.2125   -0.4290 C   0  0  0  0  0  0  0  0  0  0  0  0
    1.7077   -0.5862   -1.3929 O   0  0  0  0  0  0  0  0  0  0  0  0
    2.9817    0.6717    0.0368 N   0  0  0  0  0  0  0  0  0  0  0  0
    4.2786    0.3675   -0.5443 C   0  0  1  0  0  0  0  0  0  0  0  0
    5.2684    1.3834   -0.0645 C   0  0  0  0  0  0  0  0  0  0  0  0
    6.6390    1.2218   -0.6409 C   0  0  0  0  0  0  0  0  0  0  0  0
    7.5662    2.2494   -0.0003 C   0  0  0  0  0  0  0  0  0  0  0  0
    8.8953    2.2021   -0.5184 N   0  0  0  0  0  0  0  0  0  0  0  0
    9.7570    1.1174   -0.2782 C   0  0  0  0  0  0  0  0  0  0  0  0
    9.2820    0.0116    0.4986 N   0  0  0  0  0  0  0  0  0  0  0  0
   10.9497    1.0937   -0.7207 N   0  0  0  0  0  0  0  0  0  0  0  0
    4.6451   -1.0209   -0.1085 C   0  0  0  0  0  0  0  0  0  0  0  0
    3.8869   -1.6290    0.6111 O   0  0  0  0  0  0  0  0  0  0  0  0
   -3.0085   -2.7282   -0.8982 C   0  0  0  0  0  0  0  0  0  0  0  0
   -3.0991   -3.1088   -2.1879 C   0  0  0  0  0  0  0  0  0  0  0  0
   -3.3596   -4.4260   -2.5357 C   0  0  0  0  0  0  0  0  0  0  0  0
   -3.5248   -5.3366   -1.5158 C   0  0  0  0  0  0  0  0  0  0  0  0
   -3.4370   -4.9765   -0.1888 C   0  0  0  0  0  0  0  0  0  0  0  0
   -3.1761   -3.6476    0.1107 C   0  0  0  0  0  0  0  0  0  0  0  0
   -7.4702   -0.9587   -0.2304 H   0  0  0  0  0  0  0  0  0  0  0  0
   -7.2510    0.4654   -1.3122 H   0  0  0  0  0  0  0  0  0  0  0  0
   -8.7436    0.3621   -0.2524 H   0  0  0  0  0  0  0  0  0  0  0  0
   -6.9910    2.9336    0.6168 H   0  0  0  0  0  0  0  0  0  0  0  0
   -5.3419    2.3462    0.6728 H   0  0  0  0  0  0  0  0  0  0  0  0
   -6.3427    2.2062   -0.8700 H   0  0  0  0  0  0  0  0  0  0  0  0
   -7.3392    2.0823    2.4168 H   0  0  0  0  0  0  0  0  0  0  0  0
   -7.7472    0.3651    2.7118 H   0  0  0  0  0  0  0  0  0  0  0  0
   -8.8228    1.3348    1.6432 H   0  0  0  0  0  0  0  0  0  0  0  0
   -3.4213   -1.4972    1.5721 H   0  0  0  0  0  0  0  0  0  0  0  0
   -3.0532   -0.6884   -1.3435 H   0  0  0  0  0  0  0  0  0  0  0  0
   -1.5693    2.0477   -0.4805 H   0  0  0  0  0  0  0  0  0  0  0  0
   -2.4962    1.1783    0.8310 H   0  0  0  0  0  0  0  0  0  0  0  0
   -1.2954    2.1658    2.4075 H   0  0  0  0  0  0  0  0  0  0  0  0
   -0.2715    2.9702    1.0769 H   0  0  0  0  0  0  0  0  0  0  0  0
    1.3432    1.5535    2.0598 H   0  0  0  0  0  0  0  0  0  0  0  0
    0.0219    0.2525    2.2476 H   0  0  0  0  0  0  0  0  0  0  0  0
    0.3817    1.7775   -0.3377 H   0  0  0  0  0  0  0  0  0  0  0  0
    2.9772    1.2975    0.8967 H   0  0  0  0  0  0  0  0  0  0  0  0
    4.1673    0.3569   -1.6388 H   0  0  0  0  0  0  0  0  0  0  0  0
    5.3498    1.3087    1.0613 H   0  0  0  0  0  0  0  0  0  0  0  0
    4.8604    2.4113   -0.2733 H   0  0  0  0  0  0  0  0  0  0  0  0
    6.5542    1.4525   -1.7353 H   0  0  0  0  0  0  0  0  0  0  0  0
    7.0126    0.2117   -0.5151 H   0  0  0  0  0  0  0  0  0  0  0  0
    7.6353    2.0514    1.1054 H   0  0  0  0  0  0  0  0  0  0  0  0
    7.1150    3.2739   -0.0650 H   0  0  0  0  0  0  0  0  0  0  0  0
    9.2317    3.0208   -1.0942 H   0  0  0  0  0  0  0  0  0  0  0  0
    9.0387   -0.8998    0.0203 H   0  0  0  0  0  0  0  0  0  0  0  0
    9.1514    0.0598    1.5269 H   0  0  0  0  0  0  0  0  0  0  0  0
   11.3890    1.8687   -1.2904 H   0  0  0  0  0  0  0  0  0  0  0  0
    5.5755   -1.4659   -0.4351 H   0  0  0  0  0  0  0  0  0  0  0  0
   -2.9788   -2.4334   -3.0350 H   0  0  0  0  0  0  0  0  0  0  0  0
   -3.4366   -4.7760   -3.5577 H   0  0  0  0  0  0  0  0  0  0  0  0
   -3.7282   -6.3758   -1.7330 H   0  0  0  0  0  0  0  0  0  0  0  0
   -3.5676   -5.6889    0.5869 H   0  0  0  0  0  0  0  0  0  0  0  0
   -3.0950   -3.3211    1.1220 H   0  0  0  0  0  0  0  0  0  0  0  0
  1  2  1  0
  2  3  1  0
  2  4  1  0
  2  5  1  0
  5  6  1  0
  6  7  2  0
  6  8  1  0
  8  9  1  0
  9 10  1  0
 10 11  2  0
 10 12  1  0
 12 13  1  0
 13 14  1  0
 14 15  1  0
 15 16  1  0
 16 17  1  0
 17 18  2  0
 17 19  1  0
 19 20  1  0
 20 21  1  0
 21 22  1  0
 22 23  1  0
 23 24  1  0
 24 25  1  0
 25 26  1  0
 25 27  2  3
 20 28  1  0
 28 29  2  0
  9 30  1  0
 30 31  2  0
 31 32  1  0
 32 33  2  0
 33 34  1  0
 34 35  2  0
 16 12  1  0
 35 30  1  0
  1 36  1  0
  1 37  1  0
  1 38  1  0
  3 39  1  0
  3 40  1  0
  3 41  1  0
  4 42  1  0
  4 43  1  0
  4 44  1  0
  8 45  1  0
  9 46  1  6
 13 47  1  0
 13 48  1  0
 14 49  1  0
 14 50  1  0
 15 51  1  0
 15 52  1  0
 16 53  1  6
 19 54  1  0
 20 55  1  6
 21 56  1  0
 21 57  1  0
 22 58  1  0
 22 59  1  0
 23 60  1  0
 23 61  1  0
 24 62  1  0
 26 63  1  0
 26 64  1  0
 27 65  1  0
 28 66  1  0
 31 67  1  0
 32 68  1  0
 33 69  1  0
 34 70  1  0
 35 71  1  0
M  END
$$$$
[H]c1c([H])c([C@]2([H])Oc3c([H])c(OC([H])([H])[H])c([H])c(OC([H])([H])[H])c3C([H])([H])[C@]2([H])OC(=O)c2c([H])c(OC([H])([H])[H])c(OC([H])([H])[H])c(OC([H])([H])[H])c2[H])c([H])c(OC([H])([H])[H])c1OC([H])([H])[H]
     RDKit          3D

 71 74  0  0  0  0  0  0  0  0999 V2000
   -5.9443   -5.6328    0.7349 C   0  0  0  0  0  0  0  0  0  0  0  0
   -5.6280   -4.3979    0.1414 O   0  0  0  0  0  0  0  0  0  0  0  0
   -4.4806   -3.6621    0.3988 C   0  0  0  0  0  0  0  0  0  0  0  0
   -3.5071   -4.0854    1.2914 C   0  0  0  0  0  0  0  0  0  0  0  0
   -2.3748   -3.3510    1.5404 C   0  0  0  0  0  0  0  0  0  0  0  0
   -1.4157   -3.7875    2.4324 O   0  0  0  0  0  0  0  0  0  0  0  0
   -1.6217   -5.0195    3.0946 C   0  0  0  0  0  0  0  0  0  0  0  0
   -2.1581   -2.1443    0.9020 C   0  0  0  0  0  0  0  0  0  0  0  0
   -0.9511   -1.3281    1.1424 C   0  0  0  0  0  0  0  0  0  0  0  0
   -0.5473   -0.7364   -0.2193 C   0  0  2  0  0  0  0  0  0  0  0  0
    0.7436   -0.2408   -0.2463 O   0  0  0  0  0  0  0  0  0  0  0  0
    1.7697   -0.8247   -0.9730 C   0  0  0  0  0  0  0  0  0  0  0  0
    1.4589   -1.8647   -1.6314 O   0  0  0  0  0  0  0  0  0  0  0  0
    3.1209   -0.3012   -0.9971 C   0  0  0  0  0  0  0  0  0  0  0  0
    3.5045    0.8168   -0.2944 C   0  0  0  0  0  0  0  0  0  0  0  0
    4.8083    1.2564   -0.3688 C   0  0  0  0  0  0  0  0  0  0  0  0
    5.2281    2.3849    0.3309 O   0  0  0  0  0  0  0  0  0  0  0  0
    4.3595    3.1374    1.1473 C   0  0  0  0  0  0  0  0  0  0  0  0
    5.7599    0.6005   -1.1390 C   0  0  0  0  0  0  0  0  0  0  0  0
    7.0696    1.0933   -1.1761 O   0  0  0  0  0  0  0  0  0  0  0  0
    7.4772    2.0464   -2.1364 C   0  0  0  0  0  0  0  0  0  0  0  0
    5.3847   -0.5054   -1.8354 C   0  0  0  0  0  0  0  0  0  0  0  0
    6.3241   -1.1728   -2.6106 O   0  0  0  0  0  0  0  0  0  0  0  0
    5.9077   -2.3354   -3.3366 C   0  0  0  0  0  0  0  0  0  0  0  0
    4.0675   -0.9468   -1.7582 C   0  0  0  0  0  0  0  0  0  0  0  0
   -1.6225    0.1200   -0.7659 C   0  0  1  0  0  0  0  0  0  0  0  0
   -2.9110   -0.4998   -0.6355 O   0  0  0  0  0  0  0  0  0  0  0  0
   -3.1065   -1.7070    0.0163 C   0  0  0  0  0  0  0  0  0  0  0  0
   -4.2550   -2.4620   -0.2296 C   0  0  0  0  0  0  0  0  0  0  0  0
   -1.7719    1.4670   -0.2189 C   0  0  0  0  0  0  0  0  0  0  0  0
   -0.9337    2.0273    0.7076 C   0  0  0  0  0  0  0  0  0  0  0  0
   -1.2122    3.3342    1.1185 C   0  0  0  0  0  0  0  0  0  0  0  0
   -2.2805    4.0557    0.6287 C   0  0  0  0  0  0  0  0  0  0  0  0
   -2.5634    5.3500    1.0295 O   0  0  0  0  0  0  0  0  0  0  0  0
   -1.7707    6.0349    1.9852 C   0  0  0  0  0  0  0  0  0  0  0  0
   -3.1189    3.4765   -0.3065 C   0  0  0  0  0  0  0  0  0  0  0  0
   -4.2016    4.2214   -0.7955 O   0  0  0  0  0  0  0  0  0  0  0  0
   -5.0460    3.5886   -1.7602 C   0  0  0  0  0  0  0  0  0  0  0  0
   -2.8499    2.2056   -0.7074 C   0  0  0  0  0  0  0  0  0  0  0  0
   -5.6278   -5.6285    1.7781 H   0  0  0  0  0  0  0  0  0  0  0  0
   -5.4443   -6.4555    0.1486 H   0  0  0  0  0  0  0  0  0  0  0  0
   -7.0411   -5.8292    0.7261 H   0  0  0  0  0  0  0  0  0  0  0  0
   -3.6875   -5.0412    1.7901 H   0  0  0  0  0  0  0  0  0  0  0  0
   -1.7250   -5.8633    2.4019 H   0  0  0  0  0  0  0  0  0  0  0  0
   -0.6813   -5.2151    3.6754 H   0  0  0  0  0  0  0  0  0  0  0  0
   -2.5140   -5.0059    3.7490 H   0  0  0  0  0  0  0  0  0  0  0  0
   -0.1109   -1.9455    1.4844 H   0  0  0  0  0  0  0  0  0  0  0  0
   -1.1203   -0.5118    1.8784 H   0  0  0  0  0  0  0  0  0  0  0  0
   -0.5363   -1.6641   -0.8823 H   0  0  0  0  0  0  0  0  0  0  0  0
    2.7988    1.3524    0.3129 H   0  0  0  0  0  0  0  0  0  0  0  0
    3.7084    2.4586    1.7680 H   0  0  0  0  0  0  0  0  0  0  0  0
    4.9475    3.7161    1.9032 H   0  0  0  0  0  0  0  0  0  0  0  0
    3.6916    3.8014    0.5741 H   0  0  0  0  0  0  0  0  0  0  0  0
    6.6081    2.2583   -2.7979 H   0  0  0  0  0  0  0  0  0  0  0  0
    8.2938    1.7090   -2.7814 H   0  0  0  0  0  0  0  0  0  0  0  0
    7.7472    3.0168   -1.6703 H   0  0  0  0  0  0  0  0  0  0  0  0
    5.5988   -3.1330   -2.6434 H   0  0  0  0  0  0  0  0  0  0  0  0
    5.0352   -2.0678   -3.9702 H   0  0  0  0  0  0  0  0  0  0  0  0
    6.7081   -2.6977   -3.9997 H   0  0  0  0  0  0  0  0  0  0  0  0
    3.8116   -1.8371   -2.3328 H   0  0  0  0  0  0  0  0  0  0  0  0
   -1.5182    0.2482   -1.8862 H   0  0  0  0  0  0  0  0  0  0  0  0
   -4.9846   -2.0716   -0.9454 H   0  0  0  0  0  0  0  0  0  0  0  0
   -0.0845    1.5226    1.1370 H   0  0  0  0  0  0  0  0  0  0  0  0
   -0.5572    3.7748    1.8440 H   0  0  0  0  0  0  0  0  0  0  0  0
   -1.8998    5.6149    3.0007 H   0  0  0  0  0  0  0  0  0  0  0  0
   -0.6774    5.9406    1.7357 H   0  0  0  0  0  0  0  0  0  0  0  0
   -1.9841    7.1225    1.9671 H   0  0  0  0  0  0  0  0  0  0  0  0
   -5.9172    4.2949   -1.8897 H   0  0  0  0  0  0  0  0  0  0  0  0
   -5.4682    2.6448   -1.3884 H   0  0  0  0  0  0  0  0  0  0  0  0
   -4.5493    3.5057   -2.7440 H   0  0  0  0  0  0  0  0  0  0  0  0
   -3.5317    1.7745   -1.4482 H   0  0  0  0  0  0  0  0  0  0  0  0
  1  2  1  0
  2  3  1  0
  3  4  2  0
  4  5  1  0
  5  6  1  0
  6  7  1  0
  5  8  2  0
  8  9  1  0
  9 10  1  0
 10 11  1  0
 11 12  1  0
 12 13  2  0
 12 14  1  0
 14 15  2  0
 15 16  1  0
 16 17  1  0
 17 18  1  0
 16 19  2  0
 19 20  1  0
 20 21  1  0
 19 22  1  0
 22 23  1  0
 23 24  1  0
 22 25  2  0
 10 26  1  0
 26 27  1  0
 27 28  1  0
 28 29  2  0
 26 30  1  0
 30 31  2  0
 31 32  1  0
 32 33  2  0
 33 34  1  0
 34 35  1  0
 33 36  1  0
 36 37  1  0
 37 38  1  0
 36 39  2  0
 29  3  1  0
 39 30  1  0
 28  8  1  0
 25 14  1  0
  1 40  1  0
  1 41  1  0
  1 42  1  0
  4 43  1  0
  7 44  1  0
  7 45  1  0
  7 46  1  0
  9 47  1  0
  9 48  1  0
 10 49  1  6
 15 50  1  0
 18 51  1  0
 18 52  1  0
 18 53  1  0
 21 54  1  0
 21 55  1  0
 21 56  1  0
 24 57  1  0
 24 58  1  0
 24 59  1  0
 25 60  1  0
 26 61  1  6
 29 62  1  0
 31 63  1  0
 32 64  1  0
 35 65  1  0
 35 66  1  0
 35 67  1  0
 38 68  1  0
 38 69  1  0
 38 70  1  0
 39 71  1  0
M  END
$$$$
[H]c1c([H])c(N([H])S(=O)(=O)c2c([H])c([H])c(C(C([H])([H])[H])(C([H])([H])[H])C([H])([H])[H])c([H])c2[H])c([H])c(Cl)c1Cl
     RDKit          3D

 39 40  0  0  0  0  0  0  0  0999 V2000
   -3.9313   -1.9248   -0.1655 C   0  0  0  0  0  0  0  0  0  0  0  0
   -3.8942   -0.4258   -0.0356 C   0  0  0  0  0  0  0  0  0  0  0  0
   -4.8956   -0.0410    1.0058 C   0  0  0  0  0  0  0  0  0  0  0  0
   -4.3077    0.1300   -1.4010 C   0  0  0  0  0  0  0  0  0  0  0  0
   -2.5298    0.0350    0.2342 C   0  0  0  0  0  0  0  0  0  0  0  0
   -1.5282   -0.3945   -0.6410 C   0  0  0  0  0  0  0  0  0  0  0  0
   -0.2085    0.0153   -0.4785 C   0  0  0  0  0  0  0  0  0  0  0  0
    0.1143    0.8492    0.5529 C   0  0  0  0  0  0  0  0  0  0  0  0
   -0.8968    1.2764    1.4292 C   0  0  0  0  0  0  0  0  0  0  0  0
   -2.2016    0.8805    1.2823 C   0  0  0  0  0  0  0  0  0  0  0  0
    1.7288    1.4030    0.8821 S   0  0  0  0  0  0  0  0  0  0  0  0
    1.6984    2.8087    1.4663 O   0  0  0  0  0  0  0  0  0  0  0  0
    2.3375    0.5609    1.9913 O   0  0  0  0  0  0  0  0  0  0  0  0
    2.7732    1.3383   -0.4659 N   0  0  0  0  0  0  0  0  0  0  0  0
    3.9099    0.5239   -0.4320 C   0  0  0  0  0  0  0  0  0  0  0  0
    3.8345   -0.7423    0.0972 C   0  0  0  0  0  0  0  0  0  0  0  0
    4.9957   -1.5148    0.1756 C   0  0  0  0  0  0  0  0  0  0  0  0
    6.1874   -0.9876   -0.2837 C   0  0  0  0  0  0  0  0  0  0  0  0
    7.6326   -1.9646   -0.1566 Cl  0  0  0  0  0  0  0  0  0  0  0  0
    6.2709    0.2958   -0.8236 C   0  0  0  0  0  0  0  0  0  0  0  0
    7.7981    0.9497   -1.4012 Cl  0  0  0  0  0  0  0  0  0  0  0  0
    5.1139    1.0208   -0.8816 C   0  0  0  0  0  0  0  0  0  0  0  0
   -4.2580   -2.3922    0.8058 H   0  0  0  0  0  0  0  0  0  0  0  0
   -3.0026   -2.3855   -0.5068 H   0  0  0  0  0  0  0  0  0  0  0  0
   -4.7707   -2.1740   -0.8701 H   0  0  0  0  0  0  0  0  0  0  0  0
   -5.3155    0.9482    0.7134 H   0  0  0  0  0  0  0  0  0  0  0  0
   -4.5512   -0.0630    2.0429 H   0  0  0  0  0  0  0  0  0  0  0  0
   -5.7745   -0.7543    0.9840 H   0  0  0  0  0  0  0  0  0  0  0  0
   -4.6631    1.1894   -1.2533 H   0  0  0  0  0  0  0  0  0  0  0  0
   -5.1184   -0.5280   -1.7581 H   0  0  0  0  0  0  0  0  0  0  0  0
   -3.4464    0.0716   -2.0881 H   0  0  0  0  0  0  0  0  0  0  0  0
   -1.7289   -1.0594   -1.4785 H   0  0  0  0  0  0  0  0  0  0  0  0
    0.5891   -0.3038   -1.1424 H   0  0  0  0  0  0  0  0  0  0  0  0
   -0.6374    1.9479    2.2466 H   0  0  0  0  0  0  0  0  0  0  0  0
   -2.9856    1.2016    1.9341 H   0  0  0  0  0  0  0  0  0  0  0  0
    2.6169    1.8905   -1.3542 H   0  0  0  0  0  0  0  0  0  0  0  0
    2.9387   -1.2026    0.4564 H   0  0  0  0  0  0  0  0  0  0  0  0
    4.9141   -2.5084    0.6041 H   0  0  0  0  0  0  0  0  0  0  0  0
    5.1919    2.0297   -1.3121 H   0  0  0  0  0  0  0  0  0  0  0  0
  1  2  1  0
  2  3  1  0
  2  4  1  0
  2  5  1  0
  5  6  2  0
  6  7  1  0
  7  8  2  0
  8  9  1  0
  9 10  2  0
  8 11  1  0
 11 12  2  0
 11 13  2  0
 11 14  1  0
 14 15  1  0
 15 16  2  0
 16 17  1  0
 17 18  2  0
 18 19  1  0
 18 20  1  0
 20 21  1  0
 20 22  2  0
 10  5  1  0
 22 15  1  0
  1 23  1  0
  1 24  1  0
  1 25  1  0
  3 26  1  0
  3 27  1  0
  3 28  1  0
  4 29  1  0
  4 30  1  0
  4 31  1  0
  6 32  1  0
  7 33  1  0
  9 34  1  0
 10 35  1  0
 14 36  1  0
 16 37  1  0
 17 38  1  0
 22 39  1  0
M  END
$$$$
[H]C1=C([H])C([H])(F)C([H])([H])C([H])=C1N([H])C(=O)C1(C(=O)N([H])c2c([H])c([H])c(Oc3c([H])c([H])nc4c([H])c(OC([H])([H])C([H])([H])C([H])([H])N5C([H])([H])C([H])([H])N(C([H])([H])[H])C([H])([H])C5([H])[H])c(OC([H])([H])[H])c([H])c34)c([H])c2F)C([H])([H])C1([H])[H]
     RDKit          3D

 86 91  0  0  0  0  0  0  0  0999 V2000
   -3.7766   -3.0711   -4.0145 C   0  0  0  0  0  0  0  0  0  0  0  0
   -4.3759   -3.0202   -2.7529 O   0  0  0  0  0  0  0  0  0  0  0  0
   -3.7472   -2.6492   -1.5864 C   0  0  0  0  0  0  0  0  0  0  0  0
   -2.4184   -2.2800   -1.5584 C   0  0  0  0  0  0  0  0  0  0  0  0
   -1.7783   -1.9064   -0.3885 C   0  0  0  0  0  0  0  0  0  0  0  0
   -0.4360   -1.5543   -0.3834 C   0  0  0  0  0  0  0  0  0  0  0  0
    0.2867   -1.5534   -1.5553 O   0  0  0  0  0  0  0  0  0  0  0  0
    1.6403   -1.2687   -1.5498 C   0  0  0  0  0  0  0  0  0  0  0  0
    2.5971   -2.2432   -1.6306 C   0  0  0  0  0  0  0  0  0  0  0  0
    3.9675   -1.9424   -1.6226 C   0  0  0  0  0  0  0  0  0  0  0  0
    4.4206   -0.6491   -1.5330 C   0  0  0  0  0  0  0  0  0  0  0  0
    5.7949   -0.2676   -1.4815 N   0  0  0  0  0  0  0  0  0  0  0  0
    6.8929   -1.0704   -1.8018 C   0  0  0  0  0  0  0  0  0  0  0  0
    6.6962   -2.2719   -2.2365 O   0  0  0  0  0  0  0  0  0  0  0  0
    8.2950   -0.6208   -1.6833 C   0  0  0  0  0  0  0  0  0  0  0  0
    9.3099   -1.7393   -1.8659 C   0  0  0  0  0  0  0  0  0  0  0  0
    9.1024   -0.7642   -2.9647 C   0  0  0  0  0  0  0  0  0  0  0  0
    8.6627    0.4522   -0.7696 C   0  0  0  0  0  0  0  0  0  0  0  0
    9.8686    0.9232   -0.9527 O   0  0  0  0  0  0  0  0  0  0  0  0
    7.9622    1.0535    0.2661 N   0  0  0  0  0  0  0  0  0  0  0  0
    8.6148    2.1166    1.0175 C   0  0  0  0  0  0  0  0  0  0  0  0
    8.7947    1.9835    2.3144 C   0  0  0  0  0  0  0  0  0  0  0  0
    9.4385    2.9966    3.1611 C   0  0  0  0  0  0  0  0  0  0  0  0
    9.9420    4.2037    2.4934 C   0  0  0  0  0  0  0  0  0  0  0  0
    9.3808    5.3392    3.0904 F   0  0  0  0  0  0  0  0  0  0  0  0
    9.7085    4.2854    1.0494 C   0  0  0  0  0  0  0  0  0  0  0  0
    9.1019    3.3242    0.3926 C   0  0  0  0  0  0  0  0  0  0  0  0
    3.4372    0.3383   -1.4506 C   0  0  0  0  0  0  0  0  0  0  0  0
    3.8382    1.6395   -1.3625 F   0  0  0  0  0  0  0  0  0  0  0  0
    2.0932    0.0297   -1.4596 C   0  0  0  0  0  0  0  0  0  0  0  0
    0.1874   -1.2005    0.8101 C   0  0  0  0  0  0  0  0  0  0  0  0
   -0.6020   -1.2233    1.9469 C   0  0  0  0  0  0  0  0  0  0  0  0
   -1.9069   -1.5708    1.9034 N   0  0  0  0  0  0  0  0  0  0  0  0
   -2.5312   -1.9184    0.7580 C   0  0  0  0  0  0  0  0  0  0  0  0
   -3.8801   -2.2906    0.7425 C   0  0  0  0  0  0  0  0  0  0  0  0
   -4.5132   -2.6611   -0.4169 C   0  0  0  0  0  0  0  0  0  0  0  0
   -5.8114   -3.0190   -0.4215 O   0  0  0  0  0  0  0  0  0  0  0  0
   -6.8079   -3.1116    0.4874 C   0  0  0  0  0  0  0  0  0  0  0  0
   -7.2629   -1.9052    1.2254 C   0  0  0  0  0  0  0  0  0  0  0  0
   -7.7555   -0.8965    0.1944 C   0  0  0  0  0  0  0  0  0  0  0  0
   -8.2213    0.3115    0.7293 N   0  0  0  0  0  0  0  0  0  0  0  0
   -7.3204    1.2036    1.3467 C   0  0  0  0  0  0  0  0  0  0  0  0
   -7.7238    2.6132    0.8999 C   0  0  0  0  0  0  0  0  0  0  0  0
   -9.1419    2.7870    0.9700 N   0  0  0  0  0  0  0  0  0  0  0  0
   -9.4015    4.0604    1.6120 C   0  0  0  0  0  0  0  0  0  0  0  0
   -9.8346    1.7714    1.7148 C   0  0  0  0  0  0  0  0  0  0  0  0
   -9.5985    0.4264    1.0477 C   0  0  0  0  0  0  0  0  0  0  0  0
   -4.4861   -3.5839   -4.6966 H   0  0  0  0  0  0  0  0  0  0  0  0
   -2.8499   -3.6930   -3.9099 H   0  0  0  0  0  0  0  0  0  0  0  0
   -3.5079   -2.0675   -4.4061 H   0  0  0  0  0  0  0  0  0  0  0  0
   -1.8112   -2.2655   -2.4558 H   0  0  0  0  0  0  0  0  0  0  0  0
    2.3108   -3.2730   -1.7012 H   0  0  0  0  0  0  0  0  0  0  0  0
    4.6709   -2.7596   -1.6751 H   0  0  0  0  0  0  0  0  0  0  0  0
    5.9303    0.7591   -1.2090 H   0  0  0  0  0  0  0  0  0  0  0  0
    8.9414   -2.7785   -2.0422 H   0  0  0  0  0  0  0  0  0  0  0  0
   10.1829   -1.6684   -1.2206 H   0  0  0  0  0  0  0  0  0  0  0  0
    8.5162   -0.9781   -3.8597 H   0  0  0  0  0  0  0  0  0  0  0  0
    9.9278   -0.0366   -3.1466 H   0  0  0  0  0  0  0  0  0  0  0  0
    7.0156    0.8356    0.6270 H   0  0  0  0  0  0  0  0  0  0  0  0
    8.4312    1.0452    2.7558 H   0  0  0  0  0  0  0  0  0  0  0  0
   10.3075    2.4827    3.6920 H   0  0  0  0  0  0  0  0  0  0  0  0
    8.7223    3.3118    3.9781 H   0  0  0  0  0  0  0  0  0  0  0  0
   11.0610    4.2848    2.6716 H   0  0  0  0  0  0  0  0  0  0  0  0
   10.0581    5.1855    0.4977 H   0  0  0  0  0  0  0  0  0  0  0  0
    8.9694    3.4666   -0.6870 H   0  0  0  0  0  0  0  0  0  0  0  0
    1.3841    0.8509   -1.3917 H   0  0  0  0  0  0  0  0  0  0  0  0
    1.2254   -0.9199    0.8759 H   0  0  0  0  0  0  0  0  0  0  0  0
   -0.1407   -0.9500    2.8922 H   0  0  0  0  0  0  0  0  0  0  0  0
   -4.3774   -2.2696    1.6956 H   0  0  0  0  0  0  0  0  0  0  0  0
   -6.4940   -3.8685    1.2741 H   0  0  0  0  0  0  0  0  0  0  0  0
   -7.6821   -3.6378   -0.0052 H   0  0  0  0  0  0  0  0  0  0  0  0
   -6.5905   -1.4779    1.9580 H   0  0  0  0  0  0  0  0  0  0  0  0
   -8.2067   -2.1622    1.8072 H   0  0  0  0  0  0  0  0  0  0  0  0
   -6.9594   -0.7572   -0.5531 H   0  0  0  0  0  0  0  0  0  0  0  0
   -8.6090   -1.3722   -0.3785 H   0  0  0  0  0  0  0  0  0  0  0  0
   -6.2931    1.0492    0.9925 H   0  0  0  0  0  0  0  0  0  0  0  0
   -7.4029    1.2107    2.4547 H   0  0  0  0  0  0  0  0  0  0  0  0
   -7.1433    3.3488    1.4992 H   0  0  0  0  0  0  0  0  0  0  0  0
   -7.3840    2.6812   -0.1639 H   0  0  0  0  0  0  0  0  0  0  0  0
   -9.1516    3.9680    2.6953 H   0  0  0  0  0  0  0  0  0  0  0  0
  -10.4753    4.2959    1.5138 H   0  0  0  0  0  0  0  0  0  0  0  0
   -8.7468    4.8256    1.1190 H   0  0  0  0  0  0  0  0  0  0  0  0
  -10.9181    2.0214    1.7164 H   0  0  0  0  0  0  0  0  0  0  0  0
   -9.5029    1.6994    2.7606 H   0  0  0  0  0  0  0  0  0  0  0  0
   -9.9044   -0.3613    1.7694 H   0  0  0  0  0  0  0  0  0  0  0  0
  -10.2061    0.3684    0.0952 H   0  0  0  0  0  0  0  0  0  0  0  0
  1  2  1  0
  2  3  1  0
  3  4  2  0
  4  5  1  0
  5  6  2  0
  6  7  1  0
  7  8  1  0
  8  9  2  0
  9 10  1  0
 10 11  2  0
 11 12  1  0
 12 13  1  0
 13 14  2  0
 13 15  1  0
 15 16  1  0
 16 17  1  0
 15 18  1  0
 18 19  2  0
 18 20  1  0
 20 21  1  0
 21 22  2  0
 22 23  1  0
 23 24  1  0
 24 25  1  0
 24 26  1  0
 26 27  2  0
 11 28  1  0
 28 29  1  0
 28 30  2  0
  6 31  1  0
 31 32  2  0
 32 33  1  0
 33 34  2  0
 34 35  1  0
 35 36  2  0
 36 37  1  0
 37 38  1  0
 38 39  1  0
 39 40  1  0
 40 41  1  0
 41 42  1  0
 42 43  1  0
 43 44  1  0
 44 45  1  0
 44 46  1  0
 46 47  1  0
 36  3  1  0
 47 41  1  0
 34  5  1  0
 30  8  1  0
 17 15  1  0
 27 21  1  0
  1 48  1  0
  1 49  1  0
  1 50  1  0
  4 51  1  0
  9 52  1  0
 10 53  1  0
 12 54  1  0
 16 55  1  0
 16 56  1  0
 17 57  1  0
 17 58  1  0
 20 59  1  0
 22 60  1  0
 23 61  1  0
 23 62  1  0
 24 63  1  0
 26 64  1  0
 27 65  1  0
 30 66  1  0
 31 67  1  0
 32 68  1  0
 35 69  1  0
 38 70  1  0
 38 71  1  0
 39 72  1  0
 39 73  1  0
 40 74  1  0
 40 75  1  0
 42 76  1  0
 42 77  1  0
 43 78  1  0
 43 79  1  0
 45 80  1  0
 45 81  1  0
 45 82  1  0
 46 83  1  0
 46 84  1  0
 47 85  1  0
 47 86  1  0
M  END
$$$$
[H]c1nc(C([H])([H])[H])c([H])c(-c2nc(-c3c([H])c([H])c(OC([H])(F)F)c(C([H])([H])[H])c3[H])n3c2C([H])([H])C([H])([H])O[C@]([H])(C([H])([H])[H])C3([H])[H])c1[H]
     RDKit          3D

 52 55  0  0  0  0  0  0  0  0999 V2000
    0.7998   -3.9947   -1.5076 C   0  0  0  0  0  0  0  0  0  0  0  0
    0.2844   -3.4161   -0.2326 C   0  0  2  0  0  0  0  0  0  0  0  0
   -0.5623   -2.1945   -0.5507 C   0  0  0  0  0  0  0  0  0  0  0  0
    0.0722   -0.9450   -0.2879 N   0  0  0  0  0  0  0  0  0  0  0  0
    1.4301   -0.7164   -0.2467 C   0  0  0  0  0  0  0  0  0  0  0  0
    2.4882   -1.7039   -0.5029 C   0  0  0  0  0  0  0  0  0  0  0  0
    2.4534   -2.8690    0.4324 C   0  0  0  0  0  0  0  0  0  0  0  0
    1.1810   -3.1974    0.7627 O   0  0  0  0  0  0  0  0  0  0  0  0
    1.6580    0.5919    0.0766 C   0  0  0  0  0  0  0  0  0  0  0  0
    0.4449    1.1343    0.2264 N   0  0  0  0  0  0  0  0  0  0  0  0
   -0.5408    0.2008    0.0029 C   0  0  0  0  0  0  0  0  0  0  0  0
   -1.9516    0.5223    0.1283 C   0  0  0  0  0  0  0  0  0  0  0  0
   -2.2767    1.7068    0.8180 C   0  0  0  0  0  0  0  0  0  0  0  0
   -3.5738    2.1526    0.9634 C   0  0  0  0  0  0  0  0  0  0  0  0
   -4.6116    1.4286    0.4213 C   0  0  0  0  0  0  0  0  0  0  0  0
   -5.9358    1.7663    0.4986 O   0  0  0  0  0  0  0  0  0  0  0  0
   -6.4020    2.9067    1.1398 C   0  0  0  0  0  0  0  0  0  0  0  0
   -7.2326    2.5746    2.2291 F   0  0  0  0  0  0  0  0  0  0  0  0
   -7.1671    3.7037    0.2929 F   0  0  0  0  0  0  0  0  0  0  0  0
   -4.3288    0.2552   -0.2671 C   0  0  0  0  0  0  0  0  0  0  0  0
   -5.4270   -0.5398   -0.8611 C   0  0  0  0  0  0  0  0  0  0  0  0
   -3.0012   -0.1735   -0.3997 C   0  0  0  0  0  0  0  0  0  0  0  0
    2.9471    1.2844    0.2472 C   0  0  0  0  0  0  0  0  0  0  0  0
    3.1996    2.0152    1.3978 C   0  0  0  0  0  0  0  0  0  0  0  0
    4.3529    2.6978    1.5793 C   0  0  0  0  0  0  0  0  0  0  0  0
    5.2938    2.6727    0.6149 N   0  0  0  0  0  0  0  0  0  0  0  0
    5.1004    1.9798   -0.5210 C   0  0  0  0  0  0  0  0  0  0  0  0
    6.1778    1.9811   -1.5641 C   0  0  0  0  0  0  0  0  0  0  0  0
    3.9346    1.2847   -0.7145 C   0  0  0  0  0  0  0  0  0  0  0  0
    1.8296   -4.3642   -1.4536 H   0  0  0  0  0  0  0  0  0  0  0  0
    0.6411   -3.2640   -2.3575 H   0  0  0  0  0  0  0  0  0  0  0  0
    0.1839   -4.8922   -1.8315 H   0  0  0  0  0  0  0  0  0  0  0  0
   -0.4468   -4.1923    0.1761 H   0  0  0  0  0  0  0  0  0  0  0  0
   -1.4358   -2.2945    0.1656 H   0  0  0  0  0  0  0  0  0  0  0  0
   -0.9469   -2.2230   -1.5670 H   0  0  0  0  0  0  0  0  0  0  0  0
    2.5138   -2.0161   -1.5827 H   0  0  0  0  0  0  0  0  0  0  0  0
    3.4866   -1.1943   -0.3234 H   0  0  0  0  0  0  0  0  0  0  0  0
    3.0418   -3.7309    0.0213 H   0  0  0  0  0  0  0  0  0  0  0  0
    3.0569   -2.5737    1.3457 H   0  0  0  0  0  0  0  0  0  0  0  0
   -1.4852    2.3032    1.2606 H   0  0  0  0  0  0  0  0  0  0  0  0
   -3.7832    3.0794    1.5083 H   0  0  0  0  0  0  0  0  0  0  0  0
   -5.6446    3.5658    1.5664 H   0  0  0  0  0  0  0  0  0  0  0  0
   -5.5387   -0.3762   -1.9494 H   0  0  0  0  0  0  0  0  0  0  0  0
   -5.2597   -1.6424   -0.7363 H   0  0  0  0  0  0  0  0  0  0  0  0
   -6.3655   -0.2939   -0.3617 H   0  0  0  0  0  0  0  0  0  0  0  0
   -2.8554   -1.0735   -0.9772 H   0  0  0  0  0  0  0  0  0  0  0  0
    2.4254    2.0151    2.1515 H   0  0  0  0  0  0  0  0  0  0  0  0
    4.5594    3.2749    2.4831 H   0  0  0  0  0  0  0  0  0  0  0  0
    6.6330    3.0134   -1.5870 H   0  0  0  0  0  0  0  0  0  0  0  0
    5.7669    1.7162   -2.5362 H   0  0  0  0  0  0  0  0  0  0  0  0
    7.0189    1.3134   -1.2478 H   0  0  0  0  0  0  0  0  0  0  0  0
    3.7978    0.7407   -1.6383 H   0  0  0  0  0  0  0  0  0  0  0  0
  1  2  1  0
  2  3  1  0
  3  4  1  0
  4  5  1  0
  5  6  1  0
  6  7  1  0
  7  8  1  0
  5  9  2  0
  9 10  1  0
 10 11  2  0
 11 12  1  0
 12 13  2  0
 13 14  1  0
 14 15  2  0
 15 16  1  0
 16 17  1  0
 17 18  1  0
 17 19  1  0
 15 20  1  0
 20 21  1  0
 20 22  2  0
  9 23  1  0
 23 24  2  0
 24 25  1  0
 25 26  2  0
 26 27  1  0
 27 28  1  0
 27 29  2  0
  8  2  1  0
 22 12  1  0
 29 23  1  0
 11  4  1  0
  1 30  1  0
  1 31  1  0
  1 32  1  0
  2 33  1  1
  3 34  1  0
  3 35  1  0
  6 36  1  0
  6 37  1  0
  7 38  1  0
  7 39  1  0
 13 40  1  0
 14 41  1  0
 17 42  1  0
 21 43  1  0
 21 44  1  0
 21 45  1  0
 22 46  1  0
 24 47  1  0
 25 48  1  0
 28 49  1  0
 28 50  1  0
 28 51  1  0
 29 52  1  0
M  END
$$$$
[H]N=C(N([H])[H])N([H])C([H])([H])C([H])([H])C([H])([H])[C@@]([H])(C(=O)c1nc2c([H])c([H])c([H])c([H])c2s1)N([H])C(=O)[C@@]([H])(N([H])C(=O)[C@@]([H])(N([H])C(=O)[C@@]([H])(N([H])C(=O)C([H])([H])[H])C([H])([H])C([H])([H])C([H])([H])C([H])([H])N([H])[H])C([H])([H])C(=O)N([H])[H])C([H])([H])C([H])(C([H])([H])[H])C([H])([H])[H]
     RDKit          3D

 96 97  0  0  0  0  0  0  0  0999 V2000
   -0.7330   -3.7160    1.9456 C   0  0  0  0  0  0  0  0  0  0  0  0
   -0.6666   -2.4806    2.8500 C   0  0  0  0  0  0  0  0  0  0  0  0
    0.0752   -2.9568    4.1008 C   0  0  0  0  0  0  0  0  0  0  0  0
    0.2448   -1.4807    2.1842 C   0  0  0  0  0  0  0  0  0  0  0  0
   -0.2902   -1.0763    0.7994 C   0  0  2  0  0  0  0  0  0  0  0  0
    0.7083   -0.1155    0.3012 N   0  0  0  0  0  0  0  0  0  0  0  0
    1.8965   -0.6299   -0.3277 C   0  0  0  0  0  0  0  0  0  0  0  0
    1.9742   -1.8884   -0.3595 O   0  0  0  0  0  0  0  0  0  0  0  0
    2.9022    0.2695   -0.8667 C   0  0  2  0  0  0  0  0  0  0  0  0
    2.6214    0.6656   -2.2982 C   0  0  0  0  0  0  0  0  0  0  0  0
    2.5942   -0.4469   -3.2722 C   0  0  0  0  0  0  0  0  0  0  0  0
    2.4410   -0.1370   -4.6701 N   0  0  0  0  0  0  0  0  0  0  0  0
    2.6947   -1.6608   -3.0057 O   0  0  0  0  0  0  0  0  0  0  0  0
    4.2017   -0.4040   -0.7940 N   0  0  0  0  0  0  0  0  0  0  0  0
    5.4151    0.2598   -0.8767 C   0  0  0  0  0  0  0  0  0  0  0  0
    5.4591    1.5005   -1.0452 O   0  0  0  0  0  0  0  0  0  0  0  0
    6.7013   -0.4721   -0.7702 C   0  0  2  0  0  0  0  0  0  0  0  0
    7.4121   -0.0013    0.5230 C   0  0  0  0  0  0  0  0  0  0  0  0
    6.5715   -0.2657    1.7477 C   0  0  0  0  0  0  0  0  0  0  0  0
    7.3156    0.2676    2.9675 C   0  0  0  0  0  0  0  0  0  0  0  0
    7.5673    1.7625    2.8514 C   0  0  0  0  0  0  0  0  0  0  0  0
    6.3423    2.5163    2.7280 N   0  0  0  0  0  0  0  0  0  0  0  0
    7.6224   -0.0128   -1.8194 N   0  0  0  0  0  0  0  0  0  0  0  0
    8.2018   -0.8928   -2.7506 C   0  0  0  0  0  0  0  0  0  0  0  0
    9.1140   -0.3692   -3.7791 C   0  0  0  0  0  0  0  0  0  0  0  0
    7.9093   -2.1196   -2.6661 O   0  0  0  0  0  0  0  0  0  0  0  0
   -1.5745   -0.3877    0.9062 C   0  0  0  0  0  0  0  0  0  0  0  0
   -1.5689    0.7584    1.4270 O   0  0  0  0  0  0  0  0  0  0  0  0
   -2.8115   -0.9015    0.4713 N   0  0  0  0  0  0  0  0  0  0  0  0
   -4.0704   -0.1911    0.6167 C   0  0  1  0  0  0  0  0  0  0  0  0
   -4.1063    0.9642   -0.3769 C   0  0  0  0  0  0  0  0  0  0  0  0
   -3.9718    0.5771   -1.8050 C   0  0  0  0  0  0  0  0  0  0  0  0
   -3.9350    1.8588   -2.6203 C   0  0  0  0  0  0  0  0  0  0  0  0
   -5.0427    2.7066   -2.5454 N   0  0  0  0  0  0  0  0  0  0  0  0
   -6.3083    2.4437   -3.1046 C   0  0  0  0  0  0  0  0  0  0  0  0
   -6.6928    3.3719   -4.1599 N   0  0  0  0  0  0  0  0  0  0  0  0
   -7.1153    1.5103   -2.7794 N   0  0  0  0  0  0  0  0  0  0  0  0
   -5.1752   -1.1134    0.4420 C   0  0  0  0  0  0  0  0  0  0  0  0
   -4.9728   -2.3411    0.0705 O   0  0  0  0  0  0  0  0  0  0  0  0
   -6.5959   -0.7876    0.6574 C   0  0  0  0  0  0  0  0  0  0  0  0
   -7.1546    0.3387    1.0469 N   0  0  0  0  0  0  0  0  0  0  0  0
   -8.4475    0.4213    1.1899 C   0  0  0  0  0  0  0  0  0  0  0  0
   -9.1691    1.5504    1.6050 C   0  0  0  0  0  0  0  0  0  0  0  0
  -10.5299    1.5451    1.7372 C   0  0  0  0  0  0  0  0  0  0  0  0
  -11.2597    0.4103    1.4628 C   0  0  0  0  0  0  0  0  0  0  0  0
  -10.5870   -0.7055    1.0566 C   0  0  0  0  0  0  0  0  0  0  0  0
   -9.1825   -0.7088    0.9169 C   0  0  0  0  0  0  0  0  0  0  0  0
   -7.9715   -1.8148    0.4740 S   0  0  0  0  0  0  0  0  0  0  0  0
   -1.4971   -3.5825    1.1496 H   0  0  0  0  0  0  0  0  0  0  0  0
   -1.0936   -4.5865    2.5394 H   0  0  0  0  0  0  0  0  0  0  0  0
    0.2741   -3.9427    1.5858 H   0  0  0  0  0  0  0  0  0  0  0  0
   -1.6577   -2.0738    3.0900 H   0  0  0  0  0  0  0  0  0  0  0  0
    1.1520   -3.0954    3.8216 H   0  0  0  0  0  0  0  0  0  0  0  0
    0.0225   -2.2482    4.9296 H   0  0  0  0  0  0  0  0  0  0  0  0
   -0.2770   -3.9901    4.3713 H   0  0  0  0  0  0  0  0  0  0  0  0
    0.4834   -0.6035    2.7914 H   0  0  0  0  0  0  0  0  0  0  0  0
    1.2063   -2.0095    1.9776 H   0  0  0  0  0  0  0  0  0  0  0  0
   -0.2272   -1.9707    0.1937 H   0  0  0  0  0  0  0  0  0  0  0  0
    0.6114    0.9072    0.3713 H   0  0  0  0  0  0  0  0  0  0  0  0
    3.0386    1.2329   -0.3366 H   0  0  0  0  0  0  0  0  0  0  0  0
    3.2693    1.4930   -2.6600 H   0  0  0  0  0  0  0  0  0  0  0  0
    1.5747    1.0987   -2.3047 H   0  0  0  0  0  0  0  0  0  0  0  0
    2.3491   -0.8875   -5.3754 H   0  0  0  0  0  0  0  0  0  0  0  0
    2.4248    0.8482   -4.9854 H   0  0  0  0  0  0  0  0  0  0  0  0
    4.1861   -1.4282   -0.6738 H   0  0  0  0  0  0  0  0  0  0  0  0
    6.6552   -1.5373   -0.7618 H   0  0  0  0  0  0  0  0  0  0  0  0
    8.3838   -0.4794    0.6538 H   0  0  0  0  0  0  0  0  0  0  0  0
    7.5221    1.1154    0.4376 H   0  0  0  0  0  0  0  0  0  0  0  0
    6.4680   -1.3642    1.9422 H   0  0  0  0  0  0  0  0  0  0  0  0
    5.5812    0.1958    1.7336 H   0  0  0  0  0  0  0  0  0  0  0  0
    8.3213   -0.1966    2.9914 H   0  0  0  0  0  0  0  0  0  0  0  0
    6.7231    0.0954    3.8790 H   0  0  0  0  0  0  0  0  0  0  0  0
    8.3052    2.0045    2.0792 H   0  0  0  0  0  0  0  0  0  0  0  0
    8.0368    2.0504    3.8248 H   0  0  0  0  0  0  0  0  0  0  0  0
    5.7949    2.1993    1.8822 H   0  0  0  0  0  0  0  0  0  0  0  0
    6.6502    3.5014    2.4672 H   0  0  0  0  0  0  0  0  0  0  0  0
    7.8289    0.9882   -1.8501 H   0  0  0  0  0  0  0  0  0  0  0  0
    8.5854    0.1427   -4.5858 H   0  0  0  0  0  0  0  0  0  0  0  0
    9.6994   -1.2326   -4.1826 H   0  0  0  0  0  0  0  0  0  0  0  0
    9.8731    0.2597   -3.2533 H   0  0  0  0  0  0  0  0  0  0  0  0
   -2.8326   -1.8379    0.0213 H   0  0  0  0  0  0  0  0  0  0  0  0
   -4.1424    0.3405    1.6062 H   0  0  0  0  0  0  0  0  0  0  0  0
   -3.3147    1.7101   -0.1638 H   0  0  0  0  0  0  0  0  0  0  0  0
   -5.0656    1.5266   -0.2674 H   0  0  0  0  0  0  0  0  0  0  0  0
   -4.7294   -0.0756   -2.2259 H   0  0  0  0  0  0  0  0  0  0  0  0
   -2.9315    0.1574   -1.9224 H   0  0  0  0  0  0  0  0  0  0  0  0
   -3.7095    1.5919   -3.7069 H   0  0  0  0  0  0  0  0  0  0  0  0
   -3.0013    2.4363   -2.3244 H   0  0  0  0  0  0  0  0  0  0  0  0
   -4.9431    3.6290   -2.0335 H   0  0  0  0  0  0  0  0  0  0  0  0
   -6.7431    3.0609   -5.1423 H   0  0  0  0  0  0  0  0  0  0  0  0
   -6.9096    4.3599   -3.8767 H   0  0  0  0  0  0  0  0  0  0  0  0
   -6.8861    0.8392   -2.0384 H   0  0  0  0  0  0  0  0  0  0  0  0
   -8.6630    2.4951    1.8539 H   0  0  0  0  0  0  0  0  0  0  0  0
  -11.0643    2.4583    2.0704 H   0  0  0  0  0  0  0  0  0  0  0  0
  -12.3177    0.4274    1.5770 H   0  0  0  0  0  0  0  0  0  0  0  0
  -11.0676   -1.6437    0.8127 H   0  0  0  0  0  0  0  0  0  0  0  0
  1  2  1  0
  2  3  1  0
  2  4  1  0
  4  5  1  0
  5  6  1  0
  6  7  1  0
  7  8  2  0
  7  9  1  0
  9 10  1  0
 10 11  1  0
 11 12  1  0
 11 13  2  0
  9 14  1  0
 14 15  1  0
 15 16  2  0
 15 17  1  0
 17 18  1  0
 18 19  1  0
 19 20  1  0
 20 21  1  0
 21 22  1  0
 17 23  1  0
 23 24  1  0
 24 25  1  0
 24 26  2  0
  5 27  1  0
 27 28  2  0
 27 29  1  0
 29 30  1  0
 30 31  1  0
 31 32  1  0
 32 33  1  0
 33 34  1  0
 34 35  1  0
 35 36  1  0
 35 37  2  3
 30 38  1  0
 38 39  2  0
 38 40  1  0
 40 41  2  0
 41 42  1  0
 42 43  2  0
 43 44  1  0
 44 45  2  0
 45 46  1  0
 46 47  2  0
 47 48  1  0
 48 40  1  0
 47 42  1  0
  1 49  1  0
  1 50  1  0
  1 51  1  0
  2 52  1  0
  3 53  1  0
  3 54  1  0
  3 55  1  0
  4 56  1  0
  4 57  1  0
  5 58  1  6
  6 59  1  0
  9 60  1  1
 10 61  1  0
 10 62  1  0
 12 63  1  0
 12 64  1  0
 14 65  1  0
 17 66  1  1
 18 67  1  0
 18 68  1  0
 19 69  1  0
 19 70  1  0
 20 71  1  0
 20 72  1  0
 21 73  1  0
 21 74  1  0
 22 75  1  0
 22 76  1  0
 23 77  1  0
 25 78  1  0
 25 79  1  0
 25 80  1  0
 29 81  1  0
 30 82  1  1
 31 83  1  0
 31 84  1  0
 32 85  1  0
 32 86  1  0
 33 87  1  0
 33 88  1  0
 34 89  1  0
 36 90  1  0
 36 91  1  0
 37 92  1  0
 43 93  1  0
 44 94  1  0
 45 95  1  0
 46 96  1  0
M  END
$$$$
[H]OC(=O)[C@]1([H])C([H])([H])[C@@]2([H])N([C@@]([H])(c3c([H])c([H])c(C(F)(F)F)c([H])c3[H])C([H])([H])[H])[C@]([H])(C([H])([H])C2([H])[H])C1([H])[H]
     RDKit          3D

 43 45  0  0  0  0  0  0  0  0999 V2000
   -0.1789   -2.1010   -1.8522 C   0  0  0  0  0  0  0  0  0  0  0  0
   -0.2796   -1.2430   -0.6050 C   0  0  1  0  0  0  0  0  0  0  0  0
    0.8582   -0.5175   -0.3139 N   0  0  0  0  0  0  0  0  0  0  0  0
    1.5029    0.2914   -1.2538 C   0  0  1  0  0  0  0  0  0  0  0  0
    0.9874    1.6736   -0.9613 C   0  0  0  0  0  0  0  0  0  0  0  0
    1.0084    1.6441    0.5557 C   0  0  0  0  0  0  0  0  0  0  0  0
    0.9646    0.1581    0.9262 C   0  0  2  0  0  0  0  0  0  0  0  0
    2.3540   -0.2581    1.4622 C   0  0  0  0  0  0  0  0  0  0  0  0
    3.3264   -0.4760    0.3387 C   0  0  1  0  0  0  0  0  0  0  0  0
    2.9691    0.2708   -0.9082 C   0  0  0  0  0  0  0  0  0  0  0  0
    4.6286    0.0640    0.8257 C   0  0  0  0  0  0  0  0  0  0  0  0
    4.9029    1.3894    0.7766 O   0  0  0  0  0  0  0  0  0  0  0  0
    5.4647   -0.7484    1.2860 O   0  0  0  0  0  0  0  0  0  0  0  0
   -1.6375   -0.8587   -0.2585 C   0  0  0  0  0  0  0  0  0  0  0  0
   -2.1808   -1.0500    1.0040 C   0  0  0  0  0  0  0  0  0  0  0  0
   -3.4649   -0.7079    1.3393 C   0  0  0  0  0  0  0  0  0  0  0  0
   -4.2727   -0.1513    0.4017 C   0  0  0  0  0  0  0  0  0  0  0  0
   -3.8070    0.0610   -0.8645 C   0  0  0  0  0  0  0  0  0  0  0  0
   -2.5092   -0.2812   -1.2037 C   0  0  0  0  0  0  0  0  0  0  0  0
   -5.6693    0.1934    0.8195 C   0  0  0  0  0  0  0  0  0  0  0  0
   -5.6831    1.3638    1.5397 F   0  0  0  0  0  0  0  0  0  0  0  0
   -6.0620   -0.8143    1.7031 F   0  0  0  0  0  0  0  0  0  0  0  0
   -6.5169    0.2497   -0.2712 F   0  0  0  0  0  0  0  0  0  0  0  0
    0.8210   -2.5115   -1.9612 H   0  0  0  0  0  0  0  0  0  0  0  0
   -0.4904   -1.5549   -2.7642 H   0  0  0  0  0  0  0  0  0  0  0  0
   -0.9232   -2.9058   -1.7371 H   0  0  0  0  0  0  0  0  0  0  0  0
   -0.1237   -2.1619    0.1825 H   0  0  0  0  0  0  0  0  0  0  0  0
    1.3204    0.0332   -2.3184 H   0  0  0  0  0  0  0  0  0  0  0  0
    1.6707    2.4610   -1.3644 H   0  0  0  0  0  0  0  0  0  0  0  0
   -0.0485    1.8060   -1.3482 H   0  0  0  0  0  0  0  0  0  0  0  0
    1.9535    2.0765    0.9438 H   0  0  0  0  0  0  0  0  0  0  0  0
    0.1654    2.1870    0.9980 H   0  0  0  0  0  0  0  0  0  0  0  0
    0.1741   -0.0434    1.6494 H   0  0  0  0  0  0  0  0  0  0  0  0
    2.7036    0.3363    2.2950 H   0  0  0  0  0  0  0  0  0  0  0  0
    2.1566   -1.3054    1.8720 H   0  0  0  0  0  0  0  0  0  0  0  0
    3.4868   -1.5444    0.0744 H   0  0  0  0  0  0  0  0  0  0  0  0
    3.4392    1.2724   -0.8760 H   0  0  0  0  0  0  0  0  0  0  0  0
    3.5184   -0.2461   -1.7644 H   0  0  0  0  0  0  0  0  0  0  0  0
    5.4270    1.9721    1.3696 H   0  0  0  0  0  0  0  0  0  0  0  0
   -1.5390   -1.5173    1.7039 H   0  0  0  0  0  0  0  0  0  0  0  0
   -3.7882   -0.8708    2.3441 H   0  0  0  0  0  0  0  0  0  0  0  0
   -4.4921    0.4931   -1.6093 H   0  0  0  0  0  0  0  0  0  0  0  0
   -2.1366   -0.1001   -2.1756 H   0  0  0  0  0  0  0  0  0  0  0  0
  1  2  1  0
  2  3  1  0
  3  4  1  0
  4  5  1  0
  5  6  1  0
  6  7  1  0
  7  8  1  0
  8  9  1  0
  9 10  1  0
  9 11  1  0
 11 12  1  0
 11 13  2  0
  2 14  1  0
 14 15  2  0
 15 16  1  0
 16 17  2  0
 17 18  1  0
 18 19  2  0
 17 20  1  0
 20 21  1  0
 20 22  1  0
 20 23  1  0
  7  3  1  0
 19 14  1  0
 10  4  1  0
  1 24  1  0
  1 25  1  0
  1 26  1  0
  2 27  1  1
  4 28  1  6
  5 29  1  0
  5 30  1  0
  6 31  1  0
  6 32  1  0
  7 33  1  1
  8 34  1  0
  8 35  1  0
  9 36  1  6
 10 37  1  0
 10 38  1  0
 12 39  1  0
 15 40  1  0
 16 41  1  0
 18 42  1  0
 19 43  1  0
M  END
$$$$
[H]OC([H])([H])[C@]1(O[H])C([H])([H])C([H])([H])[C@]2([H])[C@]1(C([H])([H])[H])C([H])([H])C([H])([H])[C@]1([H])[C@]3(C([H])([H])[H])C(=C([H])C(=O)C([H])([H])C3([H])[H])C([H])([H])C([H])([H])[C@@]21[H]
     RDKit          3D

 53 56  0  0  0  0  0  0  0  0999 V2000
    1.8535    0.4922   -1.9747 C   0  0  0  0  0  0  0  0  0  0  0  0
    1.9317   -0.2667   -0.6524 C   0  0  2  0  0  0  0  0  0  0  0  0
    1.2556   -1.5663   -0.8251 C   0  0  0  0  0  0  0  0  0  0  0  0
   -0.2252   -1.3067   -1.0376 C   0  0  0  0  0  0  0  0  0  0  0  0
   -0.8174   -0.4816    0.0568 C   0  0  1  0  0  0  0  0  0  0  0  0
   -0.1274    0.8622    0.2245 C   0  0  1  0  0  0  0  0  0  0  0  0
   -0.6671    1.6185    1.3732 C   0  0  0  0  0  0  0  0  0  0  0  0
   -2.0921    1.4652    1.6922 C   0  0  0  0  0  0  0  0  0  0  0  0
   -2.8220    0.4216    0.9709 C   0  0  0  0  0  0  0  0  0  0  0  0
   -4.0040    0.0339    1.4526 C   0  0  0  0  0  0  0  0  0  0  0  0
   -4.8044   -0.9957    0.8070 C   0  0  0  0  0  0  0  0  0  0  0  0
   -5.7240   -1.5766    1.4167 O   0  0  0  0  0  0  0  0  0  0  0  0
   -4.4751   -1.3210   -0.6081 C   0  0  0  0  0  0  0  0  0  0  0  0
   -2.9898   -1.3976   -0.7250 C   0  0  0  0  0  0  0  0  0  0  0  0
   -2.2600   -0.1866   -0.2625 C   0  0  2  0  0  0  0  0  0  0  0  0
   -2.3595    0.8952   -1.3455 C   0  0  0  0  0  0  0  0  0  0  0  0
    1.3223    0.5564    0.4657 C   0  0  2  0  0  0  0  0  0  0  0  0
    2.2221    1.7336    0.4856 C   0  0  0  0  0  0  0  0  0  0  0  0
    3.5971    1.0877    0.3133 C   0  0  0  0  0  0  0  0  0  0  0  0
    3.3544   -0.3019   -0.2336 C   0  0  2  0  0  0  0  0  0  0  0  0
    4.1299   -0.5688   -1.3599 O   0  0  0  0  0  0  0  0  0  0  0  0
    3.6542   -1.2911    0.8565 C   0  0  0  0  0  0  0  0  0  0  0  0
    5.0009   -1.2055    1.1993 O   0  0  0  0  0  0  0  0  0  0  0  0
    2.2557   -0.2324   -2.7421 H   0  0  0  0  0  0  0  0  0  0  0  0
    2.5326    1.3504   -1.9951 H   0  0  0  0  0  0  0  0  0  0  0  0
    0.8333    0.7193   -2.2775 H   0  0  0  0  0  0  0  0  0  0  0  0
    1.3377   -2.2607    0.0216 H   0  0  0  0  0  0  0  0  0  0  0  0
    1.6499   -2.0500   -1.7539 H   0  0  0  0  0  0  0  0  0  0  0  0
   -0.7198   -2.2931   -1.0224 H   0  0  0  0  0  0  0  0  0  0  0  0
   -0.4135   -0.8780   -2.0427 H   0  0  0  0  0  0  0  0  0  0  0  0
   -0.7390   -1.0130    1.0104 H   0  0  0  0  0  0  0  0  0  0  0  0
   -0.2363    1.4651   -0.7090 H   0  0  0  0  0  0  0  0  0  0  0  0
   -0.0417    1.3885    2.2867 H   0  0  0  0  0  0  0  0  0  0  0  0
   -0.4581    2.7145    1.1888 H   0  0  0  0  0  0  0  0  0  0  0  0
   -2.2337    1.2563    2.7944 H   0  0  0  0  0  0  0  0  0  0  0  0
   -2.6665    2.4270    1.5374 H   0  0  0  0  0  0  0  0  0  0  0  0
   -4.3781    0.4949    2.3448 H   0  0  0  0  0  0  0  0  0  0  0  0
   -4.9168   -2.2832   -0.8712 H   0  0  0  0  0  0  0  0  0  0  0  0
   -4.9302   -0.5313   -1.2311 H   0  0  0  0  0  0  0  0  0  0  0  0
   -2.6560   -2.3334   -0.2339 H   0  0  0  0  0  0  0  0  0  0  0  0
   -2.7468   -1.5375   -1.8154 H   0  0  0  0  0  0  0  0  0  0  0  0
   -2.2283    1.8936   -0.8384 H   0  0  0  0  0  0  0  0  0  0  0  0
   -3.4165    0.8993   -1.6986 H   0  0  0  0  0  0  0  0  0  0  0  0
   -1.6486    0.7414   -2.1561 H   0  0  0  0  0  0  0  0  0  0  0  0
    1.4102    0.0072    1.4014 H   0  0  0  0  0  0  0  0  0  0  0  0
    2.1251    2.2629    1.4386 H   0  0  0  0  0  0  0  0  0  0  0  0
    2.0203    2.4618   -0.3256 H   0  0  0  0  0  0  0  0  0  0  0  0
    4.0766    1.0797    1.3140 H   0  0  0  0  0  0  0  0  0  0  0  0
    4.2267    1.7037   -0.3579 H   0  0  0  0  0  0  0  0  0  0  0  0
    5.0813   -0.2996   -1.2413 H   0  0  0  0  0  0  0  0  0  0  0  0
    3.4759   -2.3410    0.5471 H   0  0  0  0  0  0  0  0  0  0  0  0
    3.0711   -1.1183    1.7626 H   0  0  0  0  0  0  0  0  0  0  0  0
    5.3802   -0.3945    0.7856 H   0  0  0  0  0  0  0  0  0  0  0  0
  2  1  1  6
  2  3  1  0
  3  4  1  0
  4  5  1  0
  5  6  1  0
  6  7  1  0
  7  8  1  0
  8  9  1  0
  9 10  2  0
 10 11  1  0
 11 12  2  0
 11 13  1  0
 13 14  1  0
 14 15  1  0
 15 16  1  6
  6 17  1  0
 17 18  1  0
 18 19  1  0
 19 20  1  0
 20 21  1  6
 20 22  1  0
 22 23  1  0
 17  2  1  0
 20  2  1  0
 15  5  1  0
 15  9  1  0
  1 24  1  0
  1 25  1  0
  1 26  1  0
  3 27  1  0
  3 28  1  0
  4 29  1  0
  4 30  1  0
  5 31  1  1
  6 32  1  6
  7 33  1  0
  7 34  1  0
  8 35  1  0
  8 36  1  0
 10 37  1  0
 13 38  1  0
 13 39  1  0
 14 40  1  0
 14 41  1  0
 16 42  1  0
 16 43  1  0
 16 44  1  0
 17 45  1  1
 18 46  1  0
 18 47  1  0
 19 48  1  0
 19 49  1  0
 21 50  1  0
 22 51  1  0
 22 52  1  0
 23 53  1  0
M  END
$$$$
[H]OC([H])([H])C([H])([H])N(C(=O)[C@]([H])(Oc1c([H])c([H])c([H])c2nc([H])nc(N([H])c3c([H])c([H])c(OC([H])([H])c4nc([H])c([H])c([H])c4[H])c(Cl)c3[H])c12)C([H])([H])[H])C([H])([H])[H]
     RDKit          3D

 62 65  0  0  0  0  0  0  0  0999 V2000
   -4.7188   -1.0933    2.6431 C   0  0  0  0  0  0  0  0  0  0  0  0
   -3.7122   -0.4604    1.6625 C   0  0  1  0  0  0  0  0  0  0  0  0
   -2.8635   -1.2822    1.0257 O   0  0  0  0  0  0  0  0  0  0  0  0
   -2.7705   -2.5779    0.6917 C   0  0  0  0  0  0  0  0  0  0  0  0
   -3.8604   -3.4473    0.8398 C   0  0  0  0  0  0  0  0  0  0  0  0
   -3.7279   -4.7576    0.4892 C   0  0  0  0  0  0  0  0  0  0  0  0
   -2.5822   -5.2931   -0.0088 C   0  0  0  0  0  0  0  0  0  0  0  0
   -1.4978   -4.4662   -0.1654 C   0  0  0  0  0  0  0  0  0  0  0  0
   -0.3530   -4.9832   -0.6752 N   0  0  0  0  0  0  0  0  0  0  0  0
    0.6962   -4.1816   -0.8392 C   0  0  0  0  0  0  0  0  0  0  0  0
    0.6877   -2.9001   -0.5296 N   0  0  0  0  0  0  0  0  0  0  0  0
   -0.4602   -2.3300   -0.0047 C   0  0  0  0  0  0  0  0  0  0  0  0
   -0.3726   -1.0107    0.4473 N   0  0  0  0  0  0  0  0  0  0  0  0
    0.7974   -0.2408    0.0662 C   0  0  0  0  0  0  0  0  0  0  0  0
    1.3458    0.6524    0.9687 C   0  0  0  0  0  0  0  0  0  0  0  0
    2.4146    1.4326    0.6468 C   0  0  0  0  0  0  0  0  0  0  0  0
    3.0138    1.3657   -0.6266 C   0  0  0  0  0  0  0  0  0  0  0  0
    4.0351    2.1110   -0.9372 O   0  0  0  0  0  0  0  0  0  0  0  0
    5.0346    2.8520   -1.2160 C   0  0  0  0  0  0  0  0  0  0  0  0
    6.2525    2.6540   -0.3468 C   0  0  0  0  0  0  0  0  0  0  0  0
    6.3451    3.3307    0.8245 C   0  0  0  0  0  0  0  0  0  0  0  0
    7.4833    3.1328    1.6159 C   0  0  0  0  0  0  0  0  0  0  0  0
    8.4379    2.2674    1.1621 C   0  0  0  0  0  0  0  0  0  0  0  0
    8.3275    1.5873   -0.0320 C   0  0  0  0  0  0  0  0  0  0  0  0
    7.1941    1.8245   -0.7559 N   0  0  0  0  0  0  0  0  0  0  0  0
    2.4423    0.4530   -1.5284 C   0  0  0  0  0  0  0  0  0  0  0  0
    3.1785    0.3591   -3.1167 Cl  0  0  0  0  0  0  0  0  0  0  0  0
    1.3676   -0.3189   -1.1786 C   0  0  0  0  0  0  0  0  0  0  0  0
   -1.5716   -3.1121    0.1795 C   0  0  0  0  0  0  0  0  0  0  0  0
   -4.4144    0.6385    1.0432 C   0  0  0  0  0  0  0  0  0  0  0  0
   -5.1452    1.3092    1.9208 O   0  0  0  0  0  0  0  0  0  0  0  0
   -4.5136    1.1596   -0.2377 N   0  0  0  0  0  0  0  0  0  0  0  0
   -5.4124    2.3201   -0.4613 C   0  0  0  0  0  0  0  0  0  0  0  0
   -3.7743    0.6554   -1.3637 C   0  0  0  0  0  0  0  0  0  0  0  0
   -2.4860    1.4703   -1.4404 C   0  0  0  0  0  0  0  0  0  0  0  0
   -1.7099    1.0514   -2.5010 O   0  0  0  0  0  0  0  0  0  0  0  0
   -4.3358   -1.9382    3.1869 H   0  0  0  0  0  0  0  0  0  0  0  0
   -4.8886   -0.2912    3.4357 H   0  0  0  0  0  0  0  0  0  0  0  0
   -5.7034   -1.2456    2.2185 H   0  0  0  0  0  0  0  0  0  0  0  0
   -3.0214    0.0689    2.4897 H   0  0  0  0  0  0  0  0  0  0  0  0
   -4.7853   -3.0553    1.1970 H   0  0  0  0  0  0  0  0  0  0  0  0
   -4.5825   -5.4068    0.6145 H   0  0  0  0  0  0  0  0  0  0  0  0
   -2.4691   -6.3429   -0.2932 H   0  0  0  0  0  0  0  0  0  0  0  0
    1.6097   -4.6150   -1.2525 H   0  0  0  0  0  0  0  0  0  0  0  0
   -0.9866   -0.4967    1.0419 H   0  0  0  0  0  0  0  0  0  0  0  0
    0.9236    0.7425    1.9595 H   0  0  0  0  0  0  0  0  0  0  0  0
    2.8679    2.1444    1.3355 H   0  0  0  0  0  0  0  0  0  0  0  0
    4.8369    3.9797   -1.1013 H   0  0  0  0  0  0  0  0  0  0  0  0
    5.4071    2.8509   -2.3112 H   0  0  0  0  0  0  0  0  0  0  0  0
    5.5791    4.0075    1.1604 H   0  0  0  0  0  0  0  0  0  0  0  0
    7.6114    3.6458    2.5607 H   0  0  0  0  0  0  0  0  0  0  0  0
    9.3530    2.0690    1.7355 H   0  0  0  0  0  0  0  0  0  0  0  0
    9.0638    0.9095   -0.3990 H   0  0  0  0  0  0  0  0  0  0  0  0
    0.9680   -0.9874   -1.9607 H   0  0  0  0  0  0  0  0  0  0  0  0
   -5.6984    2.7910    0.4787 H   0  0  0  0  0  0  0  0  0  0  0  0
   -6.3119    1.8949   -0.9428 H   0  0  0  0  0  0  0  0  0  0  0  0
   -4.9017    2.9669   -1.1832 H   0  0  0  0  0  0  0  0  0  0  0  0
   -3.5470   -0.3934   -1.2167 H   0  0  0  0  0  0  0  0  0  0  0  0
   -4.3447    0.8351   -2.3145 H   0  0  0  0  0  0  0  0  0  0  0  0
   -1.9352    1.3878   -0.4943 H   0  0  0  0  0  0  0  0  0  0  0  0
   -2.7665    2.5480   -1.5366 H   0  0  0  0  0  0  0  0  0  0  0  0
   -1.0500    1.7588   -2.6910 H   0  0  0  0  0  0  0  0  0  0  0  0
  1  2  1  0
  2  3  1  0
  3  4  1  0
  4  5  2  0
  5  6  1  0
  6  7  2  0
  7  8  1  0
  8  9  2  0
  9 10  1  0
 10 11  2  0
 11 12  1  0
 12 13  1  0
 13 14  1  0
 14 15  2  0
 15 16  1  0
 16 17  2  0
 17 18  1  0
 18 19  1  0
 19 20  1  0
 20 21  2  0
 21 22  1  0
 22 23  2  0
 23 24  1  0
 24 25  2  0
 17 26  1  0
 26 27  1  0
 26 28  2  0
 12 29  2  0
  2 30  1  0
 30 31  2  0
 30 32  1  0
 32 33  1  0
 32 34  1  0
 34 35  1  0
 35 36  1  0
 29  4  1  0
 29  8  1  0
 28 14  1  0
 25 20  1  0
  1 37  1  0
  1 38  1  0
  1 39  1  0
  2 40  1  1
  5 41  1  0
  6 42  1  0
  7 43  1  0
 10 44  1  0
 13 45  1  0
 15 46  1  0
 16 47  1  0
 19 48  1  0
 19 49  1  0
 21 50  1  0
 22 51  1  0
 23 52  1  0
 24 53  1  0
 28 54  1  0
 33 55  1  0
 33 56  1  0
 33 57  1  0
 34 58  1  0
 34 59  1  0
 35 60  1  0
 35 61  1  0
 36 62  1  0
M  END
$$$$
[H]c1nc(C([H])([H])[H])c([H])c(-c2nc(-c3c([H])c([H])c(F)c(C([H])([H])[H])c3[H])n3c2C([H])([H])C([H])([H])O[C@]([H])(C([H])([H])[H])C3([H])[H])c1[H]
     RDKit          3D

 48 51  0  0  0  0  0  0  0  0999 V2000
   -1.0094   -4.3679    1.2760 C   0  0  0  0  0  0  0  0  0  0  0  0
   -0.3484   -3.2555    0.5102 C   0  0  2  0  0  0  0  0  0  0  0  0
   -1.3368   -2.1314    0.1785 C   0  0  0  0  0  0  0  0  0  0  0  0
   -0.6202   -0.9308   -0.0968 N   0  0  0  0  0  0  0  0  0  0  0  0
    0.7280   -0.8967   -0.3216 C   0  0  0  0  0  0  0  0  0  0  0  0
    1.7703   -1.9118   -0.3976 C   0  0  0  0  0  0  0  0  0  0  0  0
    1.4056   -3.2639   -0.8610 C   0  0  0  0  0  0  0  0  0  0  0  0
    0.1136   -3.6669   -0.7356 O   0  0  0  0  0  0  0  0  0  0  0  0
    1.0218    0.4415   -0.5063 C   0  0  0  0  0  0  0  0  0  0  0  0
   -0.1264    1.1228   -0.3888 N   0  0  0  0  0  0  0  0  0  0  0  0
   -1.1528    0.2781   -0.1351 C   0  0  0  0  0  0  0  0  0  0  0  0
   -2.5111    0.7711    0.0648 C   0  0  0  0  0  0  0  0  0  0  0  0
   -3.6471    0.0176    0.1188 C   0  0  0  0  0  0  0  0  0  0  0  0
   -4.8849    0.6324    0.3648 C   0  0  0  0  0  0  0  0  0  0  0  0
   -5.0076    1.9888    0.5568 C   0  0  0  0  0  0  0  0  0  0  0  0
   -6.2097    2.5566    0.7919 F   0  0  0  0  0  0  0  0  0  0  0  0
   -3.8823    2.7555    0.5047 C   0  0  0  0  0  0  0  0  0  0  0  0
   -3.9424    4.2251    0.7028 C   0  0  0  0  0  0  0  0  0  0  0  0
   -2.6954    2.1533    0.2677 C   0  0  0  0  0  0  0  0  0  0  0  0
    2.2783    1.0886   -0.7827 C   0  0  0  0  0  0  0  0  0  0  0  0
    2.3746    2.0285   -1.7820 C   0  0  0  0  0  0  0  0  0  0  0  0
    3.5949    2.6706   -2.0426 C   0  0  0  0  0  0  0  0  0  0  0  0
    4.6653    2.3468   -1.2952 N   0  0  0  0  0  0  0  0  0  0  0  0
    4.6168    1.4264   -0.2999 C   0  0  0  0  0  0  0  0  0  0  0  0
    5.8173    1.0958    0.5031 C   0  0  0  0  0  0  0  0  0  0  0  0
    3.3974    0.7956   -0.0511 C   0  0  0  0  0  0  0  0  0  0  0  0
   -1.0682   -5.2644    0.6105 H   0  0  0  0  0  0  0  0  0  0  0  0
   -1.9832   -4.0834    1.7052 H   0  0  0  0  0  0  0  0  0  0  0  0
   -0.3840   -4.7089    2.1498 H   0  0  0  0  0  0  0  0  0  0  0  0
    0.4278   -2.7983    1.1526 H   0  0  0  0  0  0  0  0  0  0  0  0
   -2.0107   -2.0749    1.0768 H   0  0  0  0  0  0  0  0  0  0  0  0
   -1.9551   -2.4128   -0.6841 H   0  0  0  0  0  0  0  0  0  0  0  0
    2.6403   -1.5316   -1.0190 H   0  0  0  0  0  0  0  0  0  0  0  0
    2.2199   -2.0140    0.6289 H   0  0  0  0  0  0  0  0  0  0  0  0
    1.6640   -3.3298   -1.9605 H   0  0  0  0  0  0  0  0  0  0  0  0
    2.0462   -4.0565   -0.3860 H   0  0  0  0  0  0  0  0  0  0  0  0
   -3.6479   -1.0402   -0.0433 H   0  0  0  0  0  0  0  0  0  0  0  0
   -5.7613   -0.0124    0.3992 H   0  0  0  0  0  0  0  0  0  0  0  0
   -4.7922    4.6648    0.1782 H   0  0  0  0  0  0  0  0  0  0  0  0
   -3.9773    4.4172    1.7968 H   0  0  0  0  0  0  0  0  0  0  0  0
   -3.0022    4.6906    0.3340 H   0  0  0  0  0  0  0  0  0  0  0  0
   -1.8063    2.7740    0.2301 H   0  0  0  0  0  0  0  0  0  0  0  0
    1.5546    2.3210   -2.4036 H   0  0  0  0  0  0  0  0  0  0  0  0
    3.7234    3.4112   -2.8108 H   0  0  0  0  0  0  0  0  0  0  0  0
    6.0481    1.9037    1.2360 H   0  0  0  0  0  0  0  0  0  0  0  0
    5.5849    0.1818    1.0861 H   0  0  0  0  0  0  0  0  0  0  0  0
    6.6982    0.9215   -0.1600 H   0  0  0  0  0  0  0  0  0  0  0  0
    3.3714    0.0712    0.7394 H   0  0  0  0  0  0  0  0  0  0  0  0
  1  2  1  0
  2  3  1  0
  3  4  1  0
  4  5  1  0
  5  6  1  0
  6  7  1  0
  7  8  1  0
  5  9  2  0
  9 10  1  0
 10 11  2  0
 11 12  1  0
 12 13  2  0
 13 14  1  0
 14 15  2  0
 15 16  1  0
 15 17  1  0
 17 18  1  0
 17 19  2  0
  9 20  1  0
 20 21  2  0
 21 22  1  0
 22 23  2  0
 23 24  1  0
 24 25  1  0
 24 26  2  0
  8  2  1  0
 19 12  1  0
 26 20  1  0
 11  4  1  0
  1 27  1  0
  1 28  1  0
  1 29  1  0
  2 30  1  1
  3 31  1  0
  3 32  1  0
  6 33  1  0
  6 34  1  0
  7 35  1  0
  7 36  1  0
 13 37  1  0
 14 38  1  0
 18 39  1  0
 18 40  1  0
 18 41  1  0
 19 42  1  0
 21 43  1  0
 22 44  1  0
 25 45  1  0
 25 46  1  0
 25 47  1  0
 26 48  1  0
M  END
$$$$
[H]c1c([H])c([H])c(C2=NC([H])([H])C(=O)N(C([H])([H])[H])c3c([H])c([H])c(Cl)c([H])c32)c([H])c1[H]
     RDKit          3D

 33 35  0  0  0  0  0  0  0  0999 V2000
   -3.6123    1.1302    1.0406 C   0  0  0  0  0  0  0  0  0  0  0  0
   -2.4749    1.0143    0.2081 N   0  0  0  0  0  0  0  0  0  0  0  0
   -1.8252   -0.2739    0.1636 C   0  0  0  0  0  0  0  0  0  0  0  0
   -2.7255   -1.2803    0.4040 C   0  0  0  0  0  0  0  0  0  0  0  0
   -2.2663   -2.5718    0.2729 C   0  0  0  0  0  0  0  0  0  0  0  0
   -0.9344   -2.8344   -0.0929 C   0  0  0  0  0  0  0  0  0  0  0  0
   -0.3265   -4.4652   -0.2606 Cl  0  0  0  0  0  0  0  0  0  0  0  0
   -0.0705   -1.7949   -0.3228 C   0  0  0  0  0  0  0  0  0  0  0  0
   -0.5089   -0.5054   -0.1909 C   0  0  0  0  0  0  0  0  0  0  0  0
    0.5615    0.4521   -0.4163 C   0  0  0  0  0  0  0  0  0  0  0  0
    0.3251    1.5949   -1.0279 N   0  0  0  0  0  0  0  0  0  0  0  0
   -0.8849    2.1730   -1.5732 C   0  0  0  0  0  0  0  0  0  0  0  0
   -2.0020    2.1276   -0.5854 C   0  0  0  0  0  0  0  0  0  0  0  0
   -2.6188    3.1831   -0.4116 O   0  0  0  0  0  0  0  0  0  0  0  0
    1.9023    0.2079   -0.0180 C   0  0  0  0  0  0  0  0  0  0  0  0
    2.3703   -0.7811    0.7609 C   0  0  0  0  0  0  0  0  0  0  0  0
    3.7342   -0.9943    1.0083 C   0  0  0  0  0  0  0  0  0  0  0  0
    4.6766   -0.1705    0.4472 C   0  0  0  0  0  0  0  0  0  0  0  0
    4.2350    0.8552   -0.3539 C   0  0  0  0  0  0  0  0  0  0  0  0
    2.8960    1.0434   -0.5826 C   0  0  0  0  0  0  0  0  0  0  0  0
   -3.5275    0.6176    2.0175 H   0  0  0  0  0  0  0  0  0  0  0  0
   -3.7956    2.1972    1.2630 H   0  0  0  0  0  0  0  0  0  0  0  0
   -4.5354    0.7987    0.4845 H   0  0  0  0  0  0  0  0  0  0  0  0
   -3.7317   -1.0607    0.6837 H   0  0  0  0  0  0  0  0  0  0  0  0
   -2.9388   -3.4155    0.4536 H   0  0  0  0  0  0  0  0  0  0  0  0
    0.9291   -1.9643   -0.6659 H   0  0  0  0  0  0  0  0  0  0  0  0
   -1.2403    1.7062   -2.5038 H   0  0  0  0  0  0  0  0  0  0  0  0
   -0.6661    3.2341   -1.7765 H   0  0  0  0  0  0  0  0  0  0  0  0
    1.7143   -1.4451    1.3071 H   0  0  0  0  0  0  0  0  0  0  0  0
    4.0629   -1.8040    1.6396 H   0  0  0  0  0  0  0  0  0  0  0  0
    5.7550   -0.3202    0.6286 H   0  0  0  0  0  0  0  0  0  0  0  0
    4.9742    1.4974   -0.7895 H   0  0  0  0  0  0  0  0  0  0  0  0
    2.5493    1.8487   -1.2116 H   0  0  0  0  0  0  0  0  0  0  0  0
  1  2  1  0
  2  3  1  0
  3  4  2  0
  4  5  1  0
  5  6  2  0
  6  7  1  0
  6  8  1  0
  8  9  2  0
  9 10  1  0
 10 11  2  0
 11 12  1  0
 12 13  1  0
 13 14  2  0
 10 15  1  0
 15 16  2  0
 16 17  1  0
 17 18  2  0
 18 19  1  0
 19 20  2  0
 13  2  1  0
 20 15  1  0
  9  3  1  0
  1 21  1  0
  1 22  1  0
  1 23  1  0
  4 24  1  0
  5 25  1  0
  8 26  1  0
 12 27  1  0
 12 28  1  0
 16 29  1  0
 17 30  1  0
 18 31  1  0
 19 32  1  0
 20 33  1  0
M  END
$$$$
[H]c1c([H])c(Cl)c(-c2c([H])c3c([H])nc(N([H])c4c([H])c([H])c(N5C([H])([H])C([H])([H])N(C([H])([H])[H])C([H])([H])C5([H])[H])c([H])c4[H])nc3n(C([H])([H])[H])c2=O)c(Cl)c1[H]
     RDKit          3D

 58 62  0  0  0  0  0  0  0  0999 V2000
    8.7224   -0.7038   -1.0744 C   0  0  0  0  0  0  0  0  0  0  0  0
    7.4397   -0.3590   -1.6865 N   0  0  0  0  0  0  0  0  0  0  0  0
    7.0422    0.9098   -1.1085 C   0  0  0  0  0  0  0  0  0  0  0  0
    6.3179    0.6491    0.1968 C   0  0  0  0  0  0  0  0  0  0  0  0
    5.0438    0.0436   -0.1284 N   0  0  0  0  0  0  0  0  0  0  0  0
    5.0923   -0.9153   -1.2399 C   0  0  0  0  0  0  0  0  0  0  0  0
    6.5145   -1.4160   -1.3667 C   0  0  0  0  0  0  0  0  0  0  0  0
    3.8252    0.3062    0.5286 C   0  0  0  0  0  0  0  0  0  0  0  0
    3.7214    1.1243    1.6305 C   0  0  0  0  0  0  0  0  0  0  0  0
    2.5219    1.3736    2.2571 C   0  0  0  0  0  0  0  0  0  0  0  0
    1.3265    0.7971    1.7969 C   0  0  0  0  0  0  0  0  0  0  0  0
    0.1469    1.0923    2.4998 N   0  0  0  0  0  0  0  0  0  0  0  0
   -1.1899    0.8532    2.1110 C   0  0  0  0  0  0  0  0  0  0  0  0
   -2.2165    1.2108    2.9512 N   0  0  0  0  0  0  0  0  0  0  0  0
   -3.5029    1.0306    2.6538 C   0  0  0  0  0  0  0  0  0  0  0  0
   -3.8747    0.4675    1.4698 C   0  0  0  0  0  0  0  0  0  0  0  0
   -5.2097    0.2655    1.1275 C   0  0  0  0  0  0  0  0  0  0  0  0
   -5.5448   -0.3068   -0.0798 C   0  0  0  0  0  0  0  0  0  0  0  0
   -6.9463   -0.5110   -0.4233 C   0  0  0  0  0  0  0  0  0  0  0  0
   -7.5727   -1.6909   -0.0816 C   0  0  0  0  0  0  0  0  0  0  0  0
   -6.7254   -2.9692    0.7637 Cl  0  0  0  0  0  0  0  0  0  0  0  0
   -8.9062   -1.9121   -0.3963 C   0  0  0  0  0  0  0  0  0  0  0  0
   -9.6532   -0.9477   -1.0678 C   0  0  0  0  0  0  0  0  0  0  0  0
   -9.0241    0.2360   -1.4104 C   0  0  0  0  0  0  0  0  0  0  0  0
   -7.7010    0.4264   -1.0849 C   0  0  0  0  0  0  0  0  0  0  0  0
   -6.9498    1.9389   -1.5390 Cl  0  0  0  0  0  0  0  0  0  0  0  0
   -4.5000   -0.6566   -0.9040 C   0  0  0  0  0  0  0  0  0  0  0  0
   -4.7838   -1.1819   -2.0136 O   0  0  0  0  0  0  0  0  0  0  0  0
   -3.2127   -0.4601   -0.5703 N   0  0  0  0  0  0  0  0  0  0  0  0
   -2.1231   -0.8424   -1.4667 C   0  0  0  0  0  0  0  0  0  0  0  0
   -2.8626    0.0985    0.6064 C   0  0  0  0  0  0  0  0  0  0  0  0
   -1.5959    0.3058    0.9635 N   0  0  0  0  0  0  0  0  0  0  0  0
    1.4499   -0.0143    0.6998 C   0  0  0  0  0  0  0  0  0  0  0  0
    2.6757   -0.2660    0.0631 C   0  0  0  0  0  0  0  0  0  0  0  0
    8.4600   -1.1949   -0.0924 H   0  0  0  0  0  0  0  0  0  0  0  0
    9.2266   -1.4433   -1.7258 H   0  0  0  0  0  0  0  0  0  0  0  0
    9.3445    0.2028   -0.8899 H   0  0  0  0  0  0  0  0  0  0  0  0
    7.8706    1.5909   -0.9005 H   0  0  0  0  0  0  0  0  0  0  0  0
    6.3455    1.3995   -1.8075 H   0  0  0  0  0  0  0  0  0  0  0  0
    6.2737    1.5522    0.7954 H   0  0  0  0  0  0  0  0  0  0  0  0
    6.9057   -0.1203    0.7570 H   0  0  0  0  0  0  0  0  0  0  0  0
    4.7414   -0.4993   -2.1814 H   0  0  0  0  0  0  0  0  0  0  0  0
    4.5014   -1.8035   -0.8821 H   0  0  0  0  0  0  0  0  0  0  0  0
    6.5452   -2.1425   -2.2209 H   0  0  0  0  0  0  0  0  0  0  0  0
    6.8537   -1.9325   -0.4561 H   0  0  0  0  0  0  0  0  0  0  0  0
    4.6486    1.5712    1.9890 H   0  0  0  0  0  0  0  0  0  0  0  0
    2.4849    2.0217    3.1179 H   0  0  0  0  0  0  0  0  0  0  0  0
    0.2484    1.5552    3.4589 H   0  0  0  0  0  0  0  0  0  0  0  0
   -4.2586    1.3336    3.3571 H   0  0  0  0  0  0  0  0  0  0  0  0
   -5.9798    0.5697    1.8346 H   0  0  0  0  0  0  0  0  0  0  0  0
   -9.4125   -2.8283   -0.1374 H   0  0  0  0  0  0  0  0  0  0  0  0
  -10.7017   -1.1457   -1.3040 H   0  0  0  0  0  0  0  0  0  0  0  0
   -9.6092    0.9884   -1.9349 H   0  0  0  0  0  0  0  0  0  0  0  0
   -1.4230   -1.4968   -0.8848 H   0  0  0  0  0  0  0  0  0  0  0  0
   -2.4850   -1.4366   -2.3206 H   0  0  0  0  0  0  0  0  0  0  0  0
   -1.5780    0.0677   -1.7368 H   0  0  0  0  0  0  0  0  0  0  0  0
    0.5779   -0.5003    0.2943 H   0  0  0  0  0  0  0  0  0  0  0  0
    2.6748   -0.9267   -0.8068 H   0  0  0  0  0  0  0  0  0  0  0  0
  1  2  1  0
  2  3  1  0
  3  4  1  0
  4  5  1  0
  5  6  1  0
  6  7  1  0
  5  8  1  0
  8  9  2  0
  9 10  1  0
 10 11  2  0
 11 12  1  0
 12 13  1  0
 13 14  2  0
 14 15  1  0
 15 16  2  0
 16 17  1  0
 17 18  2  0
 18 19  1  0
 19 20  2  0
 20 21  1  0
 20 22  1  0
 22 23  2  0
 23 24  1  0
 24 25  2  0
 25 26  1  0
 18 27  1  0
 27 28  2  0
 27 29  1  0
 29 30  1  0
 29 31  1  0
 31 32  2  0
 11 33  1  0
 33 34  2  0
  7  2  1  0
 34  8  1  0
 32 13  1  0
 31 16  1  0
 25 19  1  0
  1 35  1  0
  1 36  1  0
  1 37  1  0
  3 38  1  0
  3 39  1  0
  4 40  1  0
  4 41  1  0
  6 42  1  0
  6 43  1  0
  7 44  1  0
  7 45  1  0
  9 46  1  0
 10 47  1  0
 12 48  1  0
 15 49  1  0
 17 50  1  0
 22 51  1  0
 23 52  1  0
 24 53  1  0
 30 54  1  0
 30 55  1  0
 30 56  1  0
 33 57  1  0
 34 58  1  0
M  END
$$$$
[H]c1nn(C([H])([H])[H])c([H])c1-c1c([H])c([H])c2c(nc([H])n2-c2sc(C(=O)N([H])[H])c(O[C@@]([H])(c3c([H])c([H])c([H])c([H])c3Cl)C([H])([H])[H])c2[H])c1[H]
     RDKit          3D

 53 57  0  0  0  0  0  0  0  0999 V2000
   -3.2546   -2.0818    0.7426 C   0  0  0  0  0  0  0  0  0  0  0  0
   -3.4142   -0.5594    0.6416 C   0  0  1  0  0  0  0  0  0  0  0  0
   -3.5094   -0.2528   -0.7115 O   0  0  0  0  0  0  0  0  0  0  0  0
   -2.4416    0.2535   -1.4998 C   0  0  0  0  0  0  0  0  0  0  0  0
   -1.1950    0.4817   -1.0638 C   0  0  0  0  0  0  0  0  0  0  0  0
   -0.2847    0.9688   -1.9410 C   0  0  0  0  0  0  0  0  0  0  0  0
   -1.1925    1.1038   -3.3828 S   0  0  0  0  0  0  0  0  0  0  0  0
   -2.6988    0.5360   -2.8198 C   0  0  0  0  0  0  0  0  0  0  0  0
   -3.9303    0.4005   -3.5883 C   0  0  0  0  0  0  0  0  0  0  0  0
   -4.0120    0.7566   -4.9542 N   0  0  0  0  0  0  0  0  0  0  0  0
   -4.9496   -0.0452   -3.0226 O   0  0  0  0  0  0  0  0  0  0  0  0
    1.1051    1.2993   -1.7337 N   0  0  0  0  0  0  0  0  0  0  0  0
    1.6732    2.4234   -2.2065 C   0  0  0  0  0  0  0  0  0  0  0  0
    2.9723    2.4701   -1.8653 N   0  0  0  0  0  0  0  0  0  0  0  0
    3.2430    1.3493   -1.1571 C   0  0  0  0  0  0  0  0  0  0  0  0
    4.4027    0.8958   -0.5736 C   0  0  0  0  0  0  0  0  0  0  0  0
    4.3913   -0.3092    0.1021 C   0  0  0  0  0  0  0  0  0  0  0  0
    3.2271   -1.0270    0.1772 C   0  0  0  0  0  0  0  0  0  0  0  0
    2.0541   -0.5529   -0.4217 C   0  0  0  0  0  0  0  0  0  0  0  0
    2.0506    0.6323   -1.0904 C   0  0  0  0  0  0  0  0  0  0  0  0
    5.6277   -0.7909    0.7214 C   0  0  0  0  0  0  0  0  0  0  0  0
    6.0326   -2.0896    0.9083 C   0  0  0  0  0  0  0  0  0  0  0  0
    7.2316   -2.0440    1.5139 N   0  0  0  0  0  0  0  0  0  0  0  0
    7.5959   -0.7915    1.7144 N   0  0  0  0  0  0  0  0  0  0  0  0
    8.8110   -0.3001    2.3318 C   0  0  0  0  0  0  0  0  0  0  0  0
    6.6247    0.0044    1.2350 C   0  0  0  0  0  0  0  0  0  0  0  0
   -4.6170   -0.1139    1.3478 C   0  0  0  0  0  0  0  0  0  0  0  0
   -5.5257   -0.9910    1.9245 C   0  0  0  0  0  0  0  0  0  0  0  0
   -6.6577   -0.5959    2.5860 C   0  0  0  0  0  0  0  0  0  0  0  0
   -6.9367    0.7427    2.7013 C   0  0  0  0  0  0  0  0  0  0  0  0
   -6.0541    1.6379    2.1397 C   0  0  0  0  0  0  0  0  0  0  0  0
   -4.8994    1.2217    1.4655 C   0  0  0  0  0  0  0  0  0  0  0  0
   -3.8983    2.4873    0.8224 Cl  0  0  0  0  0  0  0  0  0  0  0  0
   -2.2796   -2.3139    0.2686 H   0  0  0  0  0  0  0  0  0  0  0  0
   -3.1719   -2.3894    1.8003 H   0  0  0  0  0  0  0  0  0  0  0  0
   -4.0782   -2.6024    0.2525 H   0  0  0  0  0  0  0  0  0  0  0  0
   -2.5145   -0.1636    1.1464 H   0  0  0  0  0  0  0  0  0  0  0  0
   -0.9057    0.2781   -0.0069 H   0  0  0  0  0  0  0  0  0  0  0  0
   -4.6900    1.4558   -5.3245 H   0  0  0  0  0  0  0  0  0  0  0  0
   -3.3628    0.2978   -5.6223 H   0  0  0  0  0  0  0  0  0  0  0  0
    1.1850    3.2058   -2.7853 H   0  0  0  0  0  0  0  0  0  0  0  0
    5.2984    1.4839   -0.6517 H   0  0  0  0  0  0  0  0  0  0  0  0
    3.1853   -1.9790    0.7022 H   0  0  0  0  0  0  0  0  0  0  0  0
    1.1507   -1.1251   -0.3549 H   0  0  0  0  0  0  0  0  0  0  0  0
    5.4921   -2.9956    0.6236 H   0  0  0  0  0  0  0  0  0  0  0  0
    9.3351    0.3040    1.5377 H   0  0  0  0  0  0  0  0  0  0  0  0
    9.4344   -1.1714    2.6338 H   0  0  0  0  0  0  0  0  0  0  0  0
    8.5072    0.3324    3.1847 H   0  0  0  0  0  0  0  0  0  0  0  0
    6.6060    1.1033    1.2402 H   0  0  0  0  0  0  0  0  0  0  0  0
   -5.2958   -2.0425    1.8271 H   0  0  0  0  0  0  0  0  0  0  0  0
   -7.3657   -1.2792    3.0352 H   0  0  0  0  0  0  0  0  0  0  0  0
   -7.8140    1.1180    3.2113 H   0  0  0  0  0  0  0  0  0  0  0  0
   -6.2872    2.6892    2.2389 H   0  0  0  0  0  0  0  0  0  0  0  0
  1  2  1  0
  2  3  1  0
  3  4  1  0
  4  5  1  0
  5  6  2  0
  6  7  1  0
  7  8  1  0
  8  9  1  0
  9 10  1  0
  9 11  2  0
  6 12  1  0
 12 13  1  0
 13 14  2  0
 14 15  1  0
 15 16  2  0
 16 17  1  0
 17 18  2  0
 18 19  1  0
 19 20  2  0
 17 21  1  0
 21 22  1  0
 22 23  2  0
 23 24  1  0
 24 25  1  0
 24 26  1  0
  2 27  1  0
 27 28  2  0
 28 29  1  0
 29 30  2  0
 30 31  1  0
 31 32  2  0
 32 33  1  0
  8  4  2  0
 20 12  1  0
 26 21  2  0
 32 27  1  0
 20 15  1  0
  1 34  1  0
  1 35  1  0
  1 36  1  0
  2 37  1  1
  5 38  1  0
 10 39  1  0
 10 40  1  0
 13 41  1  0
 16 42  1  0
 18 43  1  0
 19 44  1  0
 22 45  1  0
 25 46  1  0
 25 47  1  0
 25 48  1  0
 26 49  1  0
 28 50  1  0
 29 51  1  0
 30 52  1  0
 31 53  1  0
M  END
$$$$
[H]c1c([H])c(N([H])C(=O)N2C([H])([H])C([H])([H])N(c3c([H])c([H])c([N+](=O)[O-])c([H])c3[H])C([H])([H])C2([H])[H])c([H])c([H])c1C#N
     RDKit          3D

 43 45  0  0  0  0  0  0  0  0999 V2000
   -8.4332   -0.8172    0.5061 O   0  0  0  0  0  0  0  0  0  0  0  0
   -7.6829    0.2950    0.8082 N   0  0  0  0  0  0  0  0  0  0  0  0
   -8.1761    1.2961    1.3254 O   0  0  0  0  0  0  0  0  0  0  0  0
   -6.2840    0.2829    0.5095 C   0  0  0  0  0  0  0  0  0  0  0  0
   -5.4950    1.3695    0.7929 C   0  0  0  0  0  0  0  0  0  0  0  0
   -4.1477    1.3766    0.5131 C   0  0  0  0  0  0  0  0  0  0  0  0
   -3.5218    0.2694   -0.0757 C   0  0  0  0  0  0  0  0  0  0  0  0
   -4.3218   -0.8024   -0.3509 C   0  0  0  0  0  0  0  0  0  0  0  0
   -5.6911   -0.8127   -0.0677 C   0  0  0  0  0  0  0  0  0  0  0  0
   -2.1302    0.3514   -0.3414 N   0  0  0  0  0  0  0  0  0  0  0  0
   -1.4204   -0.8137   -0.7951 C   0  0  0  0  0  0  0  0  0  0  0  0
   -0.0067   -0.7916   -0.2523 C   0  0  0  0  0  0  0  0  0  0  0  0
    0.6331    0.4394   -0.5901 N   0  0  0  0  0  0  0  0  0  0  0  0
   -0.1190    1.5753   -1.0370 C   0  0  0  0  0  0  0  0  0  0  0  0
   -1.3935    1.5934   -0.1777 C   0  0  0  0  0  0  0  0  0  0  0  0
    2.0627    0.5396   -0.4694 C   0  0  0  0  0  0  0  0  0  0  0  0
    2.5181    1.6757   -0.8067 O   0  0  0  0  0  0  0  0  0  0  0  0
    2.8074   -0.5483   -0.0182 N   0  0  0  0  0  0  0  0  0  0  0  0
    4.2044   -0.5863    0.1399 C   0  0  0  0  0  0  0  0  0  0  0  0
    5.1032    0.3389   -0.3139 C   0  0  0  0  0  0  0  0  0  0  0  0
    6.4828    0.2599   -0.1158 C   0  0  0  0  0  0  0  0  0  0  0  0
    6.9737   -0.8133    0.5778 C   0  0  0  0  0  0  0  0  0  0  0  0
    6.1024   -1.7946    1.0676 C   0  0  0  0  0  0  0  0  0  0  0  0
    4.7753   -1.6666    0.8462 C   0  0  0  0  0  0  0  0  0  0  0  0
    8.3823   -0.9463    0.8114 C   0  0  0  0  0  0  0  0  0  0  0  0
    9.5233   -1.0640    1.0183 N   0  0  0  0  0  0  0  0  0  0  0  0
   -5.9727    2.2266    1.2473 H   0  0  0  0  0  0  0  0  0  0  0  0
   -3.5467    2.2357    0.7424 H   0  0  0  0  0  0  0  0  0  0  0  0
   -3.8892   -1.6774   -0.8077 H   0  0  0  0  0  0  0  0  0  0  0  0
   -6.2973   -1.6661   -0.2931 H   0  0  0  0  0  0  0  0  0  0  0  0
   -1.9306   -1.7529   -0.4957 H   0  0  0  0  0  0  0  0  0  0  0  0
   -1.3421   -0.7452   -1.9058 H   0  0  0  0  0  0  0  0  0  0  0  0
    0.5442   -1.6043   -0.7892 H   0  0  0  0  0  0  0  0  0  0  0  0
    0.0201   -1.0434    0.8089 H   0  0  0  0  0  0  0  0  0  0  0  0
   -0.4546    1.3744   -2.0696 H   0  0  0  0  0  0  0  0  0  0  0  0
    0.3917    2.5308   -0.9078 H   0  0  0  0  0  0  0  0  0  0  0  0
   -1.9871    2.4504   -0.5493 H   0  0  0  0  0  0  0  0  0  0  0  0
   -1.0728    1.7179    0.8754 H   0  0  0  0  0  0  0  0  0  0  0  0
    2.2677   -1.4242    0.2267 H   0  0  0  0  0  0  0  0  0  0  0  0
    4.7222    1.1920   -0.8768 H   0  0  0  0  0  0  0  0  0  0  0  0
    7.1465    1.0083   -0.4894 H   0  0  0  0  0  0  0  0  0  0  0  0
    6.5567   -2.6129    1.6050 H   0  0  0  0  0  0  0  0  0  0  0  0
    4.0987   -2.4158    1.2196 H   0  0  0  0  0  0  0  0  0  0  0  0
  1  2  1  0
  2  3  2  0
  2  4  1  0
  4  5  2  0
  5  6  1  0
  6  7  2  0
  7  8  1  0
  8  9  2  0
  7 10  1  0
 10 11  1  0
 11 12  1  0
 12 13  1  0
 13 14  1  0
 14 15  1  0
 13 16  1  0
 16 17  2  0
 16 18  1  0
 18 19  1  0
 19 20  2  0
 20 21  1  0
 21 22  2  0
 22 23  1  0
 23 24  2  0
 22 25  1  0
 25 26  3  0
  9  4  1  0
 15 10  1  0
 24 19  1  0
  5 27  1  0
  6 28  1  0
  8 29  1  0
  9 30  1  0
 11 31  1  0
 11 32  1  0
 12 33  1  0
 12 34  1  0
 14 35  1  0
 14 36  1  0
 15 37  1  0
 15 38  1  0
 18 39  1  0
 20 40  1  0
 21 41  1  0
 23 42  1  0
 24 43  1  0
M  CHG  2   1  -1   2   1
M  END
$$$$
[H]c1nc2c(nc(N([H])c3c([H])c([H])c(S(=O)(=O)C([H])([H])[H])c([H])c3[H])n2C([H])([H])C([H])([H])[H])c(C(=O)N([H])[H])c1[H]
     RDKit          3D

 42 44  0  0  0  0  0  0  0  0999 V2000
   -1.8544    0.2076    3.9419 C   0  0  0  0  0  0  0  0  0  0  0  0
   -1.9551   -1.0397    3.0890 C   0  0  0  0  0  0  0  0  0  0  0  0
   -2.0105   -0.6316    1.7028 N   0  0  0  0  0  0  0  0  0  0  0  0
   -0.9077   -0.4720    0.9297 C   0  0  0  0  0  0  0  0  0  0  0  0
    0.4307   -0.6904    1.3501 N   0  0  0  0  0  0  0  0  0  0  0  0
    1.5923   -0.5130    0.5756 C   0  0  0  0  0  0  0  0  0  0  0  0
    1.6661    0.1749   -0.6083 C   0  0  0  0  0  0  0  0  0  0  0  0
    2.8575    0.2920   -1.3457 C   0  0  0  0  0  0  0  0  0  0  0  0
    4.0207   -0.2883   -0.9028 C   0  0  0  0  0  0  0  0  0  0  0  0
    3.9583   -0.9801    0.2838 C   0  0  0  0  0  0  0  0  0  0  0  0
    2.7961   -1.0952    1.0039 C   0  0  0  0  0  0  0  0  0  0  0  0
    5.5238   -0.1591   -1.8028 S   0  0  0  0  0  0  0  0  0  0  0  0
    6.3589    1.3036   -1.2209 C   0  0  0  0  0  0  0  0  0  0  0  0
    6.3491   -1.3629   -1.4348 O   0  0  0  0  0  0  0  0  0  0  0  0
    5.3122   -0.1530   -3.2690 O   0  0  0  0  0  0  0  0  0  0  0  0
   -1.3912   -0.0959   -0.2582 N   0  0  0  0  0  0  0  0  0  0  0  0
   -2.7289   -0.0174   -0.2522 C   0  0  0  0  0  0  0  0  0  0  0  0
   -3.6546    0.3194   -1.2158 C   0  0  0  0  0  0  0  0  0  0  0  0
   -4.9869    0.2995   -0.8752 C   0  0  0  0  0  0  0  0  0  0  0  0
   -5.3891   -0.0496    0.4026 C   0  0  0  0  0  0  0  0  0  0  0  0
   -4.4495   -0.3693    1.3049 N   0  0  0  0  0  0  0  0  0  0  0  0
   -3.1272   -0.3697    1.0358 C   0  0  0  0  0  0  0  0  0  0  0  0
   -3.1843    0.6802   -2.5473 C   0  0  0  0  0  0  0  0  0  0  0  0
   -4.1257    1.0306   -3.5545 N   0  0  0  0  0  0  0  0  0  0  0  0
   -1.9647    0.6958   -2.8503 O   0  0  0  0  0  0  0  0  0  0  0  0
   -0.8167    0.3024    4.3673 H   0  0  0  0  0  0  0  0  0  0  0  0
   -2.0295    1.1156    3.3564 H   0  0  0  0  0  0  0  0  0  0  0  0
   -2.5853    0.1156    4.7607 H   0  0  0  0  0  0  0  0  0  0  0  0
   -2.8873   -1.6042    3.3323 H   0  0  0  0  0  0  0  0  0  0  0  0
   -1.1046   -1.7236    3.2222 H   0  0  0  0  0  0  0  0  0  0  0  0
    0.6053   -1.0204    2.3561 H   0  0  0  0  0  0  0  0  0  0  0  0
    0.7921    0.6575   -0.9971 H   0  0  0  0  0  0  0  0  0  0  0  0
    2.8702    0.8445   -2.2764 H   0  0  0  0  0  0  0  0  0  0  0  0
    4.8844   -1.4447    0.6412 H   0  0  0  0  0  0  0  0  0  0  0  0
    2.7786   -1.6575    1.9514 H   0  0  0  0  0  0  0  0  0  0  0  0
    5.9287    2.1986   -1.7305 H   0  0  0  0  0  0  0  0  0  0  0  0
    6.1117    1.4094   -0.1441 H   0  0  0  0  0  0  0  0  0  0  0  0
    7.4447    1.2450   -1.3292 H   0  0  0  0  0  0  0  0  0  0  0  0
   -5.7218    0.5682   -1.6446 H   0  0  0  0  0  0  0  0  0  0  0  0
   -6.4432   -0.0433    0.5968 H   0  0  0  0  0  0  0  0  0  0  0  0
   -4.0417    0.6357   -4.5083 H   0  0  0  0  0  0  0  0  0  0  0  0
   -4.9214    1.6848   -3.3786 H   0  0  0  0  0  0  0  0  0  0  0  0
  1  2  1  0
  2  3  1  0
  3  4  1  0
  4  5  1  0
  5  6  1  0
  6  7  2  0
  7  8  1  0
  8  9  2  0
  9 10  1  0
 10 11  2  0
  9 12  1  0
 12 13  1  0
 12 14  2  0
 12 15  2  0
  4 16  2  0
 16 17  1  0
 17 18  2  0
 18 19  1  0
 19 20  2  0
 20 21  1  0
 21 22  2  0
 18 23  1  0
 23 24  1  0
 23 25  2  0
 22  3  1  0
 11  6  1  0
 22 17  1  0
  1 26  1  0
  1 27  1  0
  1 28  1  0
  2 29  1  0
  2 30  1  0
  5 31  1  0
  7 32  1  0
  8 33  1  0
 10 34  1  0
 11 35  1  0
 13 36  1  0
 13 37  1  0
 13 38  1  0
 19 39  1  0
 20 40  1  0
 24 41  1  0
 24 42  1  0
M  END
$$$$
[H]c1c([H])c(S(=O)(=O)N([H])c2c([H])c([H])c3c([H])c([H])c([H])c([H])c3c2[H])c([H])c([H])c1[N+](=O)[O-]
     RDKit          3D

 35 37  0  0  0  0  0  0  0  0999 V2000
    5.4341   -2.0520    2.7159 O   0  0  0  0  0  0  0  0  0  0  0  0
    5.4184   -1.4650    1.4774 N   0  0  0  0  0  0  0  0  0  0  0  0
    6.3327   -1.7553    0.6839 O   0  0  0  0  0  0  0  0  0  0  0  0
    4.4078   -0.5508    1.0776 C   0  0  0  0  0  0  0  0  0  0  0  0
    3.3890   -0.2287    1.9637 C   0  0  0  0  0  0  0  0  0  0  0  0
    2.3952    0.6541    1.6054 C   0  0  0  0  0  0  0  0  0  0  0  0
    2.3630    1.2567    0.3592 C   0  0  0  0  0  0  0  0  0  0  0  0
    3.3887    0.9255   -0.5182 C   0  0  0  0  0  0  0  0  0  0  0  0
    4.3813    0.0427   -0.1580 C   0  0  0  0  0  0  0  0  0  0  0  0
    1.1688    2.3680   -0.1798 S   0  0  0  0  0  0  0  0  0  0  0  0
    0.4527    2.9425    1.0373 O   0  0  0  0  0  0  0  0  0  0  0  0
    1.9134    3.5418   -0.8068 O   0  0  0  0  0  0  0  0  0  0  0  0
   -0.0109    1.7893   -1.2394 N   0  0  0  0  0  0  0  0  0  0  0  0
   -0.9127    0.7481   -0.8788 C   0  0  0  0  0  0  0  0  0  0  0  0
   -0.5680   -0.4816   -0.4129 C   0  0  0  0  0  0  0  0  0  0  0  0
   -1.5113   -1.4450   -0.1112 C   0  0  0  0  0  0  0  0  0  0  0  0
   -2.8485   -1.1631   -0.2845 C   0  0  0  0  0  0  0  0  0  0  0  0
   -3.8013   -2.1117    0.0112 C   0  0  0  0  0  0  0  0  0  0  0  0
   -5.1256   -1.7996   -0.1727 C   0  0  0  0  0  0  0  0  0  0  0  0
   -5.4985   -0.5594   -0.6449 C   0  0  0  0  0  0  0  0  0  0  0  0
   -4.5753    0.4078   -0.9489 C   0  0  0  0  0  0  0  0  0  0  0  0
   -3.2230    0.0817   -0.7584 C   0  0  0  0  0  0  0  0  0  0  0  0
   -2.2713    1.0266   -1.0525 C   0  0  0  0  0  0  0  0  0  0  0  0
    3.3689   -0.6745    2.9538 H   0  0  0  0  0  0  0  0  0  0  0  0
    1.5762    0.9327    2.2756 H   0  0  0  0  0  0  0  0  0  0  0  0
    3.4159    1.3687   -1.5136 H   0  0  0  0  0  0  0  0  0  0  0  0
    5.1964   -0.2260   -0.8434 H   0  0  0  0  0  0  0  0  0  0  0  0
   -0.1420    2.1714   -2.2296 H   0  0  0  0  0  0  0  0  0  0  0  0
    0.4835   -0.7073   -0.2961 H   0  0  0  0  0  0  0  0  0  0  0  0
   -1.2381   -2.4187    0.2585 H   0  0  0  0  0  0  0  0  0  0  0  0
   -3.4734   -3.0863    0.3840 H   0  0  0  0  0  0  0  0  0  0  0  0
   -5.8831   -2.5526    0.0619 H   0  0  0  0  0  0  0  0  0  0  0  0
   -6.5706   -0.3628   -0.7733 H   0  0  0  0  0  0  0  0  0  0  0  0
   -4.8424    1.3870   -1.3203 H   0  0  0  0  0  0  0  0  0  0  0  0
   -2.5903    1.9961   -1.4231 H   0  0  0  0  0  0  0  0  0  0  0  0
  1  2  1  0
  2  3  2  0
  2  4  1  0
  4  5  2  0
  5  6  1  0
  6  7  2  0
  7  8  1  0
  8  9  2  0
  7 10  1  0
 10 11  2  0
 10 12  2  0
 10 13  1  0
 13 14  1  0
 14 15  2  0
 15 16  1  0
 16 17  2  0
 17 18  1  0
 18 19  2  0
 19 20  1  0
 20 21  2  0
 21 22  1  0
 22 23  2  0
  9  4  1  0
 23 14  1  0
 22 17  1  0
  5 24  1  0
  6 25  1  0
  8 26  1  0
  9 27  1  0
 13 28  1  0
 15 29  1  0
 16 30  1  0
 18 31  1  0
 19 32  1  0
 20 33  1  0
 21 34  1  0
 23 35  1  0
M  CHG  2   1  -1   2   1
M  END
$$$$
[H]c1nn2c(C#Cc3c([H])c(C(=O)N([H])c4c([H])c([H])c(C([H])([H])N5C([H])([H])C([H])([H])N(C([H])([H])[H])C([H])([H])C5([H])[H])c(C(F)(F)F)c4[H])c([H])c([H])c3C([H])([H])[H])c([H])nc2c([H])c1[H]
     RDKit          3D

 66 70  0  0  0  0  0  0  0  0999 V2000
   -9.0141    0.5418    1.2184 C   0  0  0  0  0  0  0  0  0  0  0  0
   -8.8477   -0.5373    0.2497 N   0  0  0  0  0  0  0  0  0  0  0  0
   -8.5827    0.0899   -1.0334 C   0  0  0  0  0  0  0  0  0  0  0  0
   -7.2552    0.7645   -0.9438 C   0  0  0  0  0  0  0  0  0  0  0  0
   -6.2118   -0.1531   -0.5341 N   0  0  0  0  0  0  0  0  0  0  0  0
   -5.0784    0.5515   -0.2211 C   0  0  0  0  0  0  0  0  0  0  0  0
   -3.8319    0.0140    0.2644 C   0  0  0  0  0  0  0  0  0  0  0  0
   -3.5518   -0.6040    1.4571 C   0  0  0  0  0  0  0  0  0  0  0  0
   -2.2394   -0.9318    1.8952 C   0  0  0  0  0  0  0  0  0  0  0  0
   -1.2224   -0.6514    1.1434 C   0  0  0  0  0  0  0  0  0  0  0  0
    0.1776   -0.9147    1.0432 N   0  0  0  0  0  0  0  0  0  0  0  0
    0.9252    0.3673    0.9712 C   0  0  0  0  0  0  0  0  0  0  0  0
    0.3900    1.4501    1.2745 O   0  0  0  0  0  0  0  0  0  0  0  0
    2.2559    0.2272    0.4429 C   0  0  0  0  0  0  0  0  0  0  0  0
    2.2723    0.7699   -0.8934 C   0  0  0  0  0  0  0  0  0  0  0  0
    3.3216    0.5540   -1.7049 C   0  0  0  0  0  0  0  0  0  0  0  0
    4.3564   -0.1799   -1.2160 C   0  0  0  0  0  0  0  0  0  0  0  0
    5.4628   -0.6335   -2.1215 C   0  0  0  0  0  0  0  0  0  0  0  0
    4.3807   -0.7203    0.0965 C   0  0  0  0  0  0  0  0  0  0  0  0
    3.2907   -0.4872    0.8836 C   0  0  0  0  0  0  0  0  0  0  0  0
    5.6656   -1.1744    0.4682 C   0  0  0  0  0  0  0  0  0  0  0  0
    6.8054   -1.3674    0.6644 C   0  0  0  0  0  0  0  0  0  0  0  0
    8.2411   -1.2901    0.7197 C   0  0  0  0  0  0  0  0  0  0  0  0
    9.2492   -2.1485    0.6677 C   0  0  0  0  0  0  0  0  0  0  0  0
   10.4396   -1.4267    0.6587 N   0  0  0  0  0  0  0  0  0  0  0  0
   10.1682   -0.1244    0.7099 C   0  0  0  0  0  0  0  0  0  0  0  0
   10.9607    1.0611    0.7342 C   0  0  0  0  0  0  0  0  0  0  0  0
   10.3443    2.2758    0.7914 C   0  0  0  0  0  0  0  0  0  0  0  0
    8.9568    2.3238    0.8309 C   0  0  0  0  0  0  0  0  0  0  0  0
    8.2433    1.1733    0.8123 N   0  0  0  0  0  0  0  0  0  0  0  0
    8.8461   -0.0136    0.7488 N   0  0  0  0  0  0  0  0  0  0  0  0
   -1.4856    0.0127   -0.1275 C   0  0  0  0  0  0  0  0  0  0  0  0
   -2.7267    0.3329   -0.5464 C   0  0  0  0  0  0  0  0  0  0  0  0
   -2.8951    0.8514   -1.9142 C   0  0  0  0  0  0  0  0  0  0  0  0
   -3.4853    1.9980   -2.1589 F   0  0  0  0  0  0  0  0  0  0  0  0
   -1.5739    0.9910   -2.4785 F   0  0  0  0  0  0  0  0  0  0  0  0
   -3.4174   -0.1983   -2.7307 F   0  0  0  0  0  0  0  0  0  0  0  0
   -6.5996   -1.4045   -0.2114 C   0  0  0  0  0  0  0  0  0  0  0  0
   -7.8275   -1.3914    0.7322 C   0  0  0  0  0  0  0  0  0  0  0  0
   -8.9944    1.5421    0.7561 H   0  0  0  0  0  0  0  0  0  0  0  0
   -9.9404    0.4070    1.7763 H   0  0  0  0  0  0  0  0  0  0  0  0
   -8.1456    0.5266    1.9416 H   0  0  0  0  0  0  0  0  0  0  0  0
   -9.3429    0.9146   -1.1504 H   0  0  0  0  0  0  0  0  0  0  0  0
   -8.5824   -0.5940   -1.8738 H   0  0  0  0  0  0  0  0  0  0  0  0
   -6.9842    1.2855   -1.8653 H   0  0  0  0  0  0  0  0  0  0  0  0
   -7.3084    1.6045   -0.1677 H   0  0  0  0  0  0  0  0  0  0  0  0
   -5.0019    1.5750   -0.6965 H   0  0  0  0  0  0  0  0  0  0  0  0
   -5.4877    1.0414    0.8917 H   0  0  0  0  0  0  0  0  0  0  0  0
   -4.3664   -0.8563    2.1240 H   0  0  0  0  0  0  0  0  0  0  0  0
   -2.1533   -1.4176    2.8772 H   0  0  0  0  0  0  0  0  0  0  0  0
    0.5883   -1.7873    1.0131 H   0  0  0  0  0  0  0  0  0  0  0  0
    1.4249    1.3704   -1.1553 H   0  0  0  0  0  0  0  0  0  0  0  0
    3.3639    1.0029   -2.6930 H   0  0  0  0  0  0  0  0  0  0  0  0
    5.7303   -1.7156   -1.7572 H   0  0  0  0  0  0  0  0  0  0  0  0
    6.3688   -0.0484   -1.9681 H   0  0  0  0  0  0  0  0  0  0  0  0
    5.1536   -0.7782   -3.1765 H   0  0  0  0  0  0  0  0  0  0  0  0
    3.3252   -0.8897    1.9055 H   0  0  0  0  0  0  0  0  0  0  0  0
    9.0998   -3.2243    0.6154 H   0  0  0  0  0  0  0  0  0  0  0  0
   12.0368    1.0199    0.6456 H   0  0  0  0  0  0  0  0  0  0  0  0
   10.9167    3.2214    0.8053 H   0  0  0  0  0  0  0  0  0  0  0  0
    8.3858    3.2423    0.8728 H   0  0  0  0  0  0  0  0  0  0  0  0
   -0.6206    0.2114   -0.7285 H   0  0  0  0  0  0  0  0  0  0  0  0
   -5.8347   -2.0618    0.3018 H   0  0  0  0  0  0  0  0  0  0  0  0
   -6.9602   -2.0806   -1.0664 H   0  0  0  0  0  0  0  0  0  0  0  0
   -8.1424   -2.4295    0.8356 H   0  0  0  0  0  0  0  0  0  0  0  0
   -7.4357   -1.0792    1.7405 H   0  0  0  0  0  0  0  0  0  0  0  0
  1  2  1  0
  2  3  1  0
  3  4  1  0
  4  5  1  0
  5  6  1  0
  6  7  1  0
  7  8  2  0
  8  9  1  0
  9 10  2  0
 10 11  1  0
 11 12  1  0
 12 13  2  0
 12 14  1  0
 14 15  2  0
 15 16  1  0
 16 17  2  0
 17 18  1  0
 17 19  1  0
 19 20  2  0
 19 21  1  0
 21 22  3  0
 22 23  1  0
 23 24  2  0
 24 25  1  0
 25 26  2  0
 26 27  1  0
 27 28  2  0
 28 29  1  0
 29 30  2  0
 30 31  1  0
 10 32  1  0
 32 33  2  0
 33 34  1  0
 34 35  1  0
 34 36  1  0
 34 37  1  0
  5 38  1  0
 38 39  1  0
 39  2  1  0
 33  7  1  0
 20 14  1  0
 31 23  1  0
 31 26  1  0
  1 40  1  0
  1 41  1  0
  1 42  1  0
  3 43  1  0
  3 44  1  0
  4 45  1  0
  4 46  1  0
  6 47  1  0
  6 48  1  0
  8 49  1  0
  9 50  1  0
 11 51  1  0
 15 52  1  0
 16 53  1  0
 18 54  1  0
 18 55  1  0
 18 56  1  0
 20 57  1  0
 24 58  1  0
 27 59  1  0
 28 60  1  0
 29 61  1  0
 32 62  1  0
 38 63  1  0
 38 64  1  0
 39 65  1  0
 39 66  1  0
M  END
$$$$
[H]c1nc([H])c([H])c(-c2nc(N3C([H])([H])C([H])([H])C(F)(F)C([H])([H])C3([H])[H])nc(N3C([H])([H])C([H])([H])N(C(=O)OC(C([H])([H])[H])(C([H])([H])[H])C([H])([H])[H])[C@]([H])(C([H])([H])[H])C3([H])[H])c2[H])c1[H]
     RDKit          3D

 66 69  0  0  0  0  0  0  0  0999 V2000
    2.1687    2.1396   -0.8357 C   0  0  0  0  0  0  0  0  0  0  0  0
    2.4277    1.0661   -1.8642 C   0  0  2  0  0  0  0  0  0  0  0  0
    1.0793    0.7601   -2.5330 C   0  0  0  0  0  0  0  0  0  0  0  0
    0.3414   -0.0300   -1.5826 N   0  0  0  0  0  0  0  0  0  0  0  0
    0.8613   -1.3470   -1.1857 C   0  0  0  0  0  0  0  0  0  0  0  0
    2.3007   -1.4339   -1.6271 C   0  0  0  0  0  0  0  0  0  0  0  0
    2.9280   -0.1521   -1.3042 N   0  0  0  0  0  0  0  0  0  0  0  0
    4.0517   -0.1496   -0.4205 C   0  0  0  0  0  0  0  0  0  0  0  0
    4.6679    0.8785   -0.0789 O   0  0  0  0  0  0  0  0  0  0  0  0
    4.5190   -1.3482    0.1141 O   0  0  0  0  0  0  0  0  0  0  0  0
    5.6195   -1.4233    0.9903 C   0  0  0  0  0  0  0  0  0  0  0  0
    5.4239   -0.6383    2.2573 C   0  0  0  0  0  0  0  0  0  0  0  0
    5.8198   -2.8989    1.3279 C   0  0  0  0  0  0  0  0  0  0  0  0
    6.8449   -0.9573    0.2382 C   0  0  0  0  0  0  0  0  0  0  0  0
   -0.8665    0.4099   -1.0060 C   0  0  0  0  0  0  0  0  0  0  0  0
   -1.3749    1.6827   -1.1491 C   0  0  0  0  0  0  0  0  0  0  0  0
   -2.5820    2.0159   -0.5486 C   0  0  0  0  0  0  0  0  0  0  0  0
   -3.1858    1.0426    0.1508 N   0  0  0  0  0  0  0  0  0  0  0  0
   -2.7059   -0.1834    0.2947 C   0  0  0  0  0  0  0  0  0  0  0  0
   -1.5537   -0.5171   -0.2731 N   0  0  0  0  0  0  0  0  0  0  0  0
   -3.4150   -1.1802    1.0639 N   0  0  0  0  0  0  0  0  0  0  0  0
   -4.6677   -0.8001    1.6678 C   0  0  0  0  0  0  0  0  0  0  0  0
   -5.6930   -1.9104    1.5831 C   0  0  0  0  0  0  0  0  0  0  0  0
   -5.1673   -3.1824    2.1510 C   0  0  0  0  0  0  0  0  0  0  0  0
   -5.4216   -4.1941    1.2236 F   0  0  0  0  0  0  0  0  0  0  0  0
   -5.8596   -3.4968    3.2923 F   0  0  0  0  0  0  0  0  0  0  0  0
   -3.6749   -3.1442    2.4022 C   0  0  0  0  0  0  0  0  0  0  0  0
   -2.9297   -2.5180    1.2500 C   0  0  0  0  0  0  0  0  0  0  0  0
   -3.1688    3.3540   -0.6677 C   0  0  0  0  0  0  0  0  0  0  0  0
   -4.3716    3.5857   -0.0344 C   0  0  0  0  0  0  0  0  0  0  0  0
   -5.0150    4.8055   -0.0778 C   0  0  0  0  0  0  0  0  0  0  0  0
   -4.4345    5.7862   -0.7643 N   0  0  0  0  0  0  0  0  0  0  0  0
   -3.2668    5.5948   -1.3908 C   0  0  0  0  0  0  0  0  0  0  0  0
   -2.5912    4.3762   -1.3670 C   0  0  0  0  0  0  0  0  0  0  0  0
    1.5143    2.8959   -1.3400 H   0  0  0  0  0  0  0  0  0  0  0  0
    3.0875    2.6954   -0.5369 H   0  0  0  0  0  0  0  0  0  0  0  0
    1.6172    1.7495    0.0357 H   0  0  0  0  0  0  0  0  0  0  0  0
    3.1274    1.5010   -2.6306 H   0  0  0  0  0  0  0  0  0  0  0  0
    1.3516    0.1296   -3.4186 H   0  0  0  0  0  0  0  0  0  0  0  0
    0.5693    1.6692   -2.8127 H   0  0  0  0  0  0  0  0  0  0  0  0
    0.8805   -1.3282   -0.0661 H   0  0  0  0  0  0  0  0  0  0  0  0
    0.2310   -2.1669   -1.5574 H   0  0  0  0  0  0  0  0  0  0  0  0
    2.3166   -1.5260   -2.7250 H   0  0  0  0  0  0  0  0  0  0  0  0
    2.8432   -2.2612   -1.1276 H   0  0  0  0  0  0  0  0  0  0  0  0
    5.7257    0.4340    2.1306 H   0  0  0  0  0  0  0  0  0  0  0  0
    6.1426   -1.0462    3.0152 H   0  0  0  0  0  0  0  0  0  0  0  0
    4.4217   -0.7607    2.6707 H   0  0  0  0  0  0  0  0  0  0  0  0
    5.4920   -3.0549    2.3604 H   0  0  0  0  0  0  0  0  0  0  0  0
    5.1794   -3.5540    0.6896 H   0  0  0  0  0  0  0  0  0  0  0  0
    6.8609   -3.2059    1.1313 H   0  0  0  0  0  0  0  0  0  0  0  0
    6.9909    0.1346    0.3387 H   0  0  0  0  0  0  0  0  0  0  0  0
    7.7436   -1.5222    0.5974 H   0  0  0  0  0  0  0  0  0  0  0  0
    6.6778   -1.1750   -0.8548 H   0  0  0  0  0  0  0  0  0  0  0  0
   -0.8395    2.4010   -1.7135 H   0  0  0  0  0  0  0  0  0  0  0  0
   -5.0250    0.1315    1.2208 H   0  0  0  0  0  0  0  0  0  0  0  0
   -4.4352   -0.5507    2.7432 H   0  0  0  0  0  0  0  0  0  0  0  0
   -6.5665   -1.5813    2.1706 H   0  0  0  0  0  0  0  0  0  0  0  0
   -5.9562   -2.0118    0.5034 H   0  0  0  0  0  0  0  0  0  0  0  0
   -3.5160   -2.4954    3.2926 H   0  0  0  0  0  0  0  0  0  0  0  0
   -3.2701   -4.1406    2.6160 H   0  0  0  0  0  0  0  0  0  0  0  0
   -3.1142   -3.1548    0.3355 H   0  0  0  0  0  0  0  0  0  0  0  0
   -1.8487   -2.5666    1.4355 H   0  0  0  0  0  0  0  0  0  0  0  0
   -4.8742    2.7926    0.5405 H   0  0  0  0  0  0  0  0  0  0  0  0
   -5.9721    4.9315    0.4463 H   0  0  0  0  0  0  0  0  0  0  0  0
   -2.8111    6.4041   -1.9433 H   0  0  0  0  0  0  0  0  0  0  0  0
   -1.6526    4.2398   -1.8767 H   0  0  0  0  0  0  0  0  0  0  0  0
  1  2  1  0
  2  3  1  0
  3  4  1  0
  4  5  1  0
  5  6  1  0
  6  7  1  0
  7  8  1  0
  8  9  2  0
  8 10  1  0
 10 11  1  0
 11 12  1  0
 11 13  1  0
 11 14  1  0
  4 15  1  0
 15 16  2  0
 16 17  1  0
 17 18  2  0
 18 19  1  0
 19 20  2  0
 19 21  1  0
 21 22  1  0
 22 23  1  0
 23 24  1  0
 24 25  1  0
 24 26  1  0
 24 27  1  0
 27 28  1  0
 17 29  1  0
 29 30  2  0
 30 31  1  0
 31 32  2  0
 32 33  1  0
 33 34  2  0
  7  2  1  0
 20 15  1  0
 28 21  1  0
 34 29  1  0
  1 35  1  0
  1 36  1  0
  1 37  1  0
  2 38  1  6
  3 39  1  0
  3 40  1  0
  5 41  1  0
  5 42  1  0
  6 43  1  0
  6 44  1  0
 12 45  1  0
 12 46  1  0
 12 47  1  0
 13 48  1  0
 13 49  1  0
 13 50  1  0
 14 51  1  0
 14 52  1  0
 14 53  1  0
 16 54  1  0
 22 55  1  0
 22 56  1  0
 23 57  1  0
 23 58  1  0
 27 59  1  0
 27 60  1  0
 28 61  1  0
 28 62  1  0
 30 63  1  0
 31 64  1  0
 33 65  1  0
 34 66  1  0
M  END
$$$$
[H]c1nc(N([H])c2c([H])c([H])c(N3C([H])([H])C([H])([H])C([H])(N([H])C(=O)C([H])([H])[H])C([H])([H])C3([H])[H])c([H])c2OC([H])([H])[H])nc(N([H])c2c([H])c([H])c([H])c([H])c2S(=O)(=O)C([H])(C([H])([H])[H])C([H])([H])[H])c1Cl
     RDKit          3D

 72 75  0  0  0  0  0  0  0  0999 V2000
    2.0518    3.7572   -0.5569 C   0  0  0  0  0  0  0  0  0  0  0  0
    1.2559    2.6224   -0.3733 O   0  0  0  0  0  0  0  0  0  0  0  0
    1.6814    1.4342    0.1757 C   0  0  0  0  0  0  0  0  0  0  0  0
    2.9985    1.3627    0.5747 C   0  0  0  0  0  0  0  0  0  0  0  0
    3.5012    0.1990    1.1370 C   0  0  0  0  0  0  0  0  0  0  0  0
    2.6588   -0.8856    1.2911 C   0  0  0  0  0  0  0  0  0  0  0  0
    1.3365   -0.8241    0.8941 C   0  0  0  0  0  0  0  0  0  0  0  0
    0.8204    0.3267    0.3310 C   0  0  0  0  0  0  0  0  0  0  0  0
   -0.4908    0.4963   -0.1016 N   0  0  0  0  0  0  0  0  0  0  0  0
   -1.5309   -0.4570   -0.1950 C   0  0  0  0  0  0  0  0  0  0  0  0
   -1.3525   -1.7280    0.1493 N   0  0  0  0  0  0  0  0  0  0  0  0
   -2.3373   -2.6264    0.0268 C   0  0  0  0  0  0  0  0  0  0  0  0
   -3.5455   -2.1892   -0.4695 C   0  0  0  0  0  0  0  0  0  0  0  0
   -4.8084   -3.3770   -0.6410 Cl  0  0  0  0  0  0  0  0  0  0  0  0
   -3.7786   -0.8585   -0.8444 C   0  0  0  0  0  0  0  0  0  0  0  0
   -5.0594   -0.5264   -1.3270 N   0  0  0  0  0  0  0  0  0  0  0  0
   -5.5521    0.7058   -1.7915 C   0  0  0  0  0  0  0  0  0  0  0  0
   -4.6791    1.7396   -2.1046 C   0  0  0  0  0  0  0  0  0  0  0  0
   -5.1618    2.9098   -2.6557 C   0  0  0  0  0  0  0  0  0  0  0  0
   -6.5041    3.0532   -2.8950 C   0  0  0  0  0  0  0  0  0  0  0  0
   -7.3480    2.0316   -2.5819 C   0  0  0  0  0  0  0  0  0  0  0  0
   -6.9233    0.8202   -2.0195 C   0  0  0  0  0  0  0  0  0  0  0  0
   -8.1446   -0.3038   -1.5788 S   0  0  0  0  0  0  0  0  0  0  0  0
   -9.4558    0.1328   -2.2795 O   0  0  0  0  0  0  0  0  0  0  0  0
   -7.8863   -1.7265   -2.0061 O   0  0  0  0  0  0  0  0  0  0  0  0
   -8.4674   -0.2626    0.1458 C   0  0  0  0  0  0  0  0  0  0  0  0
   -9.6199   -1.2243    0.4754 C   0  0  0  0  0  0  0  0  0  0  0  0
   -7.3431   -0.5820    1.0623 C   0  0  0  0  0  0  0  0  0  0  0  0
   -2.7445   -0.0450   -0.6862 N   0  0  0  0  0  0  0  0  0  0  0  0
    4.8428    0.0842    1.5394 N   0  0  0  0  0  0  0  0  0  0  0  0
    5.2994   -1.1828    2.1471 C   0  0  0  0  0  0  0  0  0  0  0  0
    6.8170   -1.1427    2.1670 C   0  0  0  0  0  0  0  0  0  0  0  0
    7.2892   -0.7932    0.7818 C   0  0  0  0  0  0  0  0  0  0  0  0
    6.8409    0.5889    0.3684 C   0  0  0  0  0  0  0  0  0  0  0  0
    5.8435    1.1004    1.4091 C   0  0  0  0  0  0  0  0  0  0  0  0
    8.7082   -0.9128    0.6735 N   0  0  0  0  0  0  0  0  0  0  0  0
    9.3120   -1.8735   -0.2015 C   0  0  0  0  0  0  0  0  0  0  0  0
   10.7789   -1.9866   -0.3096 C   0  0  0  0  0  0  0  0  0  0  0  0
    8.5608   -2.6081   -0.8670 O   0  0  0  0  0  0  0  0  0  0  0  0
    2.2958    4.2811    0.3998 H   0  0  0  0  0  0  0  0  0  0  0  0
    1.4661    4.4806   -1.1786 H   0  0  0  0  0  0  0  0  0  0  0  0
    3.0114    3.5595   -1.0646 H   0  0  0  0  0  0  0  0  0  0  0  0
    3.6597    2.2335    0.4480 H   0  0  0  0  0  0  0  0  0  0  0  0
    3.0408   -1.7851    1.7302 H   0  0  0  0  0  0  0  0  0  0  0  0
    0.7519   -1.7052    1.0564 H   0  0  0  0  0  0  0  0  0  0  0  0
   -0.7547    1.5051   -0.4044 H   0  0  0  0  0  0  0  0  0  0  0  0
   -2.1816   -3.6618    0.3091 H   0  0  0  0  0  0  0  0  0  0  0  0
   -5.7586   -1.3350   -1.3779 H   0  0  0  0  0  0  0  0  0  0  0  0
   -3.5922    1.6732   -1.9437 H   0  0  0  0  0  0  0  0  0  0  0  0
   -4.4527    3.6860   -2.8820 H   0  0  0  0  0  0  0  0  0  0  0  0
   -6.9080    3.9729   -3.3336 H   0  0  0  0  0  0  0  0  0  0  0  0
   -8.4116    2.1856   -2.7868 H   0  0  0  0  0  0  0  0  0  0  0  0
   -8.8529    0.7512    0.4630 H   0  0  0  0  0  0  0  0  0  0  0  0
   -9.7279   -1.2217    1.5664 H   0  0  0  0  0  0  0  0  0  0  0  0
   -9.3657   -2.2370    0.0826 H   0  0  0  0  0  0  0  0  0  0  0  0
  -10.5363   -0.9164   -0.0762 H   0  0  0  0  0  0  0  0  0  0  0  0
   -6.5957    0.2426    1.1677 H   0  0  0  0  0  0  0  0  0  0  0  0
   -7.8099   -0.6622    2.0991 H   0  0  0  0  0  0  0  0  0  0  0  0
   -6.8609   -1.5557    0.8567 H   0  0  0  0  0  0  0  0  0  0  0  0
    4.9444   -1.2923    3.1734 H   0  0  0  0  0  0  0  0  0  0  0  0
    4.9994   -2.0550    1.5301 H   0  0  0  0  0  0  0  0  0  0  0  0
    7.1736   -0.4898    2.9598 H   0  0  0  0  0  0  0  0  0  0  0  0
    7.1376   -2.2127    2.3475 H   0  0  0  0  0  0  0  0  0  0  0  0
    6.8111   -1.5441    0.0825 H   0  0  0  0  0  0  0  0  0  0  0  0
    7.6828    1.3081    0.3362 H   0  0  0  0  0  0  0  0  0  0  0  0
    6.2862    0.5515   -0.5943 H   0  0  0  0  0  0  0  0  0  0  0  0
    5.5054    2.0722    1.0296 H   0  0  0  0  0  0  0  0  0  0  0  0
    6.3510    1.2757    2.3840 H   0  0  0  0  0  0  0  0  0  0  0  0
    9.3211   -0.2788    1.2480 H   0  0  0  0  0  0  0  0  0  0  0  0
   11.1252   -2.7801    0.3785 H   0  0  0  0  0  0  0  0  0  0  0  0
   11.2735   -1.0255   -0.0558 H   0  0  0  0  0  0  0  0  0  0  0  0
   11.1076   -2.2695   -1.3370 H   0  0  0  0  0  0  0  0  0  0  0  0
  1  2  1  0
  2  3  1  0
  3  4  2  0
  4  5  1  0
  5  6  2  0
  6  7  1  0
  7  8  2  0
  8  9  1  0
  9 10  1  0
 10 11  2  0
 11 12  1  0
 12 13  2  0
 13 14  1  0
 13 15  1  0
 15 16  1  0
 16 17  1  0
 17 18  2  0
 18 19  1  0
 19 20  2  0
 20 21  1  0
 21 22  2  0
 22 23  1  0
 23 24  2  0
 23 25  2  0
 23 26  1  0
 26 27  1  0
 26 28  1  0
 15 29  2  0
  5 30  1  0
 30 31  1  0
 31 32  1  0
 32 33  1  0
 33 34  1  0
 34 35  1  0
 33 36  1  0
 36 37  1  0
 37 38  1  0
 37 39  2  0
  8  3  1  0
 29 10  1  0
 35 30  1  0
 22 17  1  0
  1 40  1  0
  1 41  1  0
  1 42  1  0
  4 43  1  0
  6 44  1  0
  7 45  1  0
  9 46  1  0
 12 47  1  0
 16 48  1  0
 18 49  1  0
 19 50  1  0
 20 51  1  0
 21 52  1  0
 26 53  1  0
 27 54  1  0
 27 55  1  0
 27 56  1  0
 28 57  1  0
 28 58  1  0
 28 59  1  0
 31 60  1  0
 31 61  1  0
 32 62  1  0
 32 63  1  0
 33 64  1  0
 34 65  1  0
 34 66  1  0
 35 67  1  0
 35 68  1  0
 36 69  1  0
 38 70  1  0
 38 71  1  0
 38 72  1  0
M  END
$$$$
[H]OC(=O)c1c([H])c([H])c(N2C(=O)N(c3c([H])c([H])c(C#N)c([H])c3[H])C(=O)C23C([H])([H])C([H])([H])N(C([H])([H])c2nc([H])c([H])c([H])c2C([H])([H])[H])C([H])([H])C3([H])[H])c([H])c1[H]
     RDKit          3D

 62 66  0  0  0  0  0  0  0  0999 V2000
    4.6243    0.1383   -1.7047 C   0  0  0  0  0  0  0  0  0  0  0  0
    5.3173    0.0094   -0.4165 C   0  0  0  0  0  0  0  0  0  0  0  0
    6.6390   -0.4984   -0.3023 C   0  0  0  0  0  0  0  0  0  0  0  0
    7.1667   -0.6719    0.9371 C   0  0  0  0  0  0  0  0  0  0  0  0
    6.5102   -0.3933    2.0858 C   0  0  0  0  0  0  0  0  0  0  0  0
    5.2434    0.0930    1.9565 N   0  0  0  0  0  0  0  0  0  0  0  0
    4.6498    0.2957    0.7296 C   0  0  0  0  0  0  0  0  0  0  0  0
    3.3595    0.9897    0.6940 C   0  0  0  0  0  0  0  0  0  0  0  0
    2.2367    0.4525    0.1074 N   0  0  0  0  0  0  0  0  0  0  0  0
    1.7338   -0.7797    0.4390 C   0  0  0  0  0  0  0  0  0  0  0  0
    0.3562   -0.7095    1.0979 C   0  0  0  0  0  0  0  0  0  0  0  0
   -0.6302   -0.0111    0.2788 C   0  0  0  0  0  0  0  0  0  0  0  0
    0.0160    0.7689   -0.8417 C   0  0  0  0  0  0  0  0  0  0  0  0
    1.2373    1.4208   -0.2855 C   0  0  0  0  0  0  0  0  0  0  0  0
   -1.7925   -0.7560   -0.1364 N   0  0  0  0  0  0  0  0  0  0  0  0
   -2.6706    0.3221   -0.6172 C   0  0  0  0  0  0  0  0  0  0  0  0
   -3.5020    0.2263   -1.5312 O   0  0  0  0  0  0  0  0  0  0  0  0
   -2.4038    1.4924    0.1602 N   0  0  0  0  0  0  0  0  0  0  0  0
   -1.3541    1.0865    1.0850 C   0  0  0  0  0  0  0  0  0  0  0  0
   -1.1362    1.5193    2.1813 O   0  0  0  0  0  0  0  0  0  0  0  0
   -3.0270    2.7618    0.0676 C   0  0  0  0  0  0  0  0  0  0  0  0
   -3.0100    3.6603    1.1279 C   0  0  0  0  0  0  0  0  0  0  0  0
   -3.6637    4.9142    1.0175 C   0  0  0  0  0  0  0  0  0  0  0  0
   -4.3234    5.2544   -0.1357 C   0  0  0  0  0  0  0  0  0  0  0  0
   -4.3316    4.3661   -1.1654 C   0  0  0  0  0  0  0  0  0  0  0  0
   -3.6952    3.1378   -1.0595 C   0  0  0  0  0  0  0  0  0  0  0  0
   -5.0275    6.5035   -0.2717 C   0  0  0  0  0  0  0  0  0  0  0  0
   -5.5678    7.5190   -0.3821 N   0  0  0  0  0  0  0  0  0  0  0  0
   -2.2014   -2.0636   -0.1573 C   0  0  0  0  0  0  0  0  0  0  0  0
   -3.4661   -2.5419    0.1276 C   0  0  0  0  0  0  0  0  0  0  0  0
   -3.8669   -3.8463    0.1083 C   0  0  0  0  0  0  0  0  0  0  0  0
   -2.9229   -4.8198   -0.2287 C   0  0  0  0  0  0  0  0  0  0  0  0
   -1.6662   -4.3809   -0.5214 C   0  0  0  0  0  0  0  0  0  0  0  0
   -1.2556   -3.0932   -0.5056 C   0  0  0  0  0  0  0  0  0  0  0  0
   -3.2932   -6.2138   -0.2474 C   0  0  0  0  0  0  0  0  0  0  0  0
   -2.3666   -7.1901   -0.6572 O   0  0  0  0  0  0  0  0  0  0  0  0
   -4.4272   -6.6063    0.0895 O   0  0  0  0  0  0  0  0  0  0  0  0
    4.0913    1.1002   -1.8689 H   0  0  0  0  0  0  0  0  0  0  0  0
    5.3967    0.0526   -2.4926 H   0  0  0  0  0  0  0  0  0  0  0  0
    3.9319   -0.7368   -1.9195 H   0  0  0  0  0  0  0  0  0  0  0  0
    7.0957   -0.7066   -1.2499 H   0  0  0  0  0  0  0  0  0  0  0  0
    8.2248   -1.0578    1.0048 H   0  0  0  0  0  0  0  0  0  0  0  0
    6.9803   -0.5349    3.0619 H   0  0  0  0  0  0  0  0  0  0  0  0
    3.1003    1.1658    1.8479 H   0  0  0  0  0  0  0  0  0  0  0  0
    3.5327    2.0439    0.3851 H   0  0  0  0  0  0  0  0  0  0  0  0
    1.6973   -1.5136   -0.4306 H   0  0  0  0  0  0  0  0  0  0  0  0
    2.4128   -1.3306    1.1603 H   0  0  0  0  0  0  0  0  0  0  0  0
    0.0555   -1.7177    1.4725 H   0  0  0  0  0  0  0  0  0  0  0  0
    0.5630   -0.1084    2.0426 H   0  0  0  0  0  0  0  0  0  0  0  0
   -0.6883    1.5446   -1.2464 H   0  0  0  0  0  0  0  0  0  0  0  0
    0.3452    0.1430   -1.6955 H   0  0  0  0  0  0  0  0  0  0  0  0
    1.0697    2.1705    0.5025 H   0  0  0  0  0  0  0  0  0  0  0  0
    1.7314    1.9880   -1.1326 H   0  0  0  0  0  0  0  0  0  0  0  0
   -2.5200    3.3985    2.0251 H   0  0  0  0  0  0  0  0  0  0  0  0
   -3.6328    5.5793    1.8506 H   0  0  0  0  0  0  0  0  0  0  0  0
   -4.8317    4.6499   -2.0730 H   0  0  0  0  0  0  0  0  0  0  0  0
   -3.7725    2.5006   -1.9332 H   0  0  0  0  0  0  0  0  0  0  0  0
   -4.1903   -1.7603    0.3926 H   0  0  0  0  0  0  0  0  0  0  0  0
   -4.8562   -4.2067    0.3351 H   0  0  0  0  0  0  0  0  0  0  0  0
   -0.9032   -5.1537   -0.7914 H   0  0  0  0  0  0  0  0  0  0  0  0
   -0.2765   -2.8028   -0.7339 H   0  0  0  0  0  0  0  0  0  0  0  0
   -2.0454   -7.0632   -1.6371 H   0  0  0  0  0  0  0  0  0  0  0  0
  1  2  1  0
  2  3  2  0
  3  4  1  0
  4  5  2  0
  5  6  1  0
  6  7  2  0
  7  8  1  0
  8  9  1  0
  9 10  1  0
 10 11  1  0
 11 12  1  0
 12 13  1  0
 13 14  1  0
 12 15  1  0
 15 16  1  0
 16 17  2  0
 16 18  1  0
 18 19  1  0
 19 20  2  0
 18 21  1  0
 21 22  2  0
 22 23  1  0
 23 24  2  0
 24 25  1  0
 25 26  2  0
 24 27  1  0
 27 28  3  0
 15 29  1  0
 29 30  2  0
 30 31  1  0
 31 32  2  0
 32 33  1  0
 33 34  2  0
 32 35  1  0
 35 36  1  0
 35 37  2  0
  7  2  1  0
 14  9  1  0
 26 21  1  0
 34 29  1  0
 19 12  1  0
  1 38  1  0
  1 39  1  0
  1 40  1  0
  3 41  1  0
  4 42  1  0
  5 43  1  0
  8 44  1  0
  8 45  1  0
 10 46  1  0
 10 47  1  0
 11 48  1  0
 11 49  1  0
 13 50  1  0
 13 51  1  0
 14 52  1  0
 14 53  1  0
 22 54  1  0
 23 55  1  0
 25 56  1  0
 26 57  1  0
 30 58  1  0
 31 59  1  0
 33 60  1  0
 34 61  1  0
 36 62  1  0
M  END
$$$$
[H]/C(=C(/[H])c1c([H])c(F)c([H])c(C([H])([H])n2c([H])nc([H])c2[H])c1[H])c1c([H])c([H])c(N2C([H])([H])C([H])([H])N(S(=O)(=O)C([H])([H])[H])C([H])([H])C2([H])[H])c([H])c1[H]
     RDKit          3D

 56 59  0  0  0  0  0  0  0  0999 V2000
    8.3218    0.6914    0.2379 C   0  0  0  0  0  0  0  0  0  0  0  0
    8.1342   -0.8944    0.9810 S   0  0  0  0  0  0  0  0  0  0  0  0
    9.0048   -1.8755    0.2250 O   0  0  0  0  0  0  0  0  0  0  0  0
    8.5860   -0.8081    2.4148 O   0  0  0  0  0  0  0  0  0  0  0  0
    6.4984   -1.4461    0.9643 N   0  0  0  0  0  0  0  0  0  0  0  0
    6.0647   -1.5678   -0.3886 C   0  0  0  0  0  0  0  0  0  0  0  0
    4.5614   -1.5987   -0.5366 C   0  0  0  0  0  0  0  0  0  0  0  0
    3.9215   -0.5197    0.1672 N   0  0  0  0  0  0  0  0  0  0  0  0
    4.7586    0.3074    1.0003 C   0  0  0  0  0  0  0  0  0  0  0  0
    5.6568   -0.6536    1.7966 C   0  0  0  0  0  0  0  0  0  0  0  0
    2.5334   -0.3128    0.0254 C   0  0  0  0  0  0  0  0  0  0  0  0
    1.8663    0.7510    0.5892 C   0  0  0  0  0  0  0  0  0  0  0  0
    0.4978    0.8972    0.4190 C   0  0  0  0  0  0  0  0  0  0  0  0
   -0.2437   -0.0112   -0.3171 C   0  0  0  0  0  0  0  0  0  0  0  0
   -1.6803    0.1882   -0.4640 C   0  0  0  0  0  0  0  0  0  0  0  0
   -2.4991   -0.5802   -1.1230 C   0  0  0  0  0  0  0  0  0  0  0  0
   -3.9343   -0.3748   -1.2657 C   0  0  0  0  0  0  0  0  0  0  0  0
   -4.6962   -1.2764   -1.9987 C   0  0  0  0  0  0  0  0  0  0  0  0
   -6.0513   -1.1471   -2.1752 C   0  0  0  0  0  0  0  0  0  0  0  0
   -6.7488   -2.0703   -2.9105 F   0  0  0  0  0  0  0  0  0  0  0  0
   -6.6947   -0.0706   -1.5986 C   0  0  0  0  0  0  0  0  0  0  0  0
   -5.9964    0.8490   -0.8663 C   0  0  0  0  0  0  0  0  0  0  0  0
   -6.7226    1.9943   -0.2611 C   0  0  0  0  0  0  0  0  0  0  0  0
   -7.1871    1.7026    1.0726 N   0  0  0  0  0  0  0  0  0  0  0  0
   -8.3471    1.1707    1.4833 C   0  0  0  0  0  0  0  0  0  0  0  0
   -8.3643    1.0731    2.8522 C   0  0  0  0  0  0  0  0  0  0  0  0
   -7.1658    1.5665    3.2841 N   0  0  0  0  0  0  0  0  0  0  0  0
   -6.4501    1.9497    2.1938 C   0  0  0  0  0  0  0  0  0  0  0  0
   -4.6254    0.6777   -0.7141 C   0  0  0  0  0  0  0  0  0  0  0  0
    0.4663   -1.0517   -0.8576 C   0  0  0  0  0  0  0  0  0  0  0  0
    1.8154   -1.2279   -0.7106 C   0  0  0  0  0  0  0  0  0  0  0  0
    7.6606    0.8287   -0.6382 H   0  0  0  0  0  0  0  0  0  0  0  0
    8.2179    1.5164    0.9768 H   0  0  0  0  0  0  0  0  0  0  0  0
    9.3767    0.7562   -0.1406 H   0  0  0  0  0  0  0  0  0  0  0  0
    6.4580   -2.5150   -0.8091 H   0  0  0  0  0  0  0  0  0  0  0  0
    6.4363   -0.7432   -1.0416 H   0  0  0  0  0  0  0  0  0  0  0  0
    4.3465   -1.4369   -1.6311 H   0  0  0  0  0  0  0  0  0  0  0  0
    4.1765   -2.5990   -0.2985 H   0  0  0  0  0  0  0  0  0  0  0  0
    5.4570    0.8750    0.3379 H   0  0  0  0  0  0  0  0  0  0  0  0
    4.2395    0.9351    1.7181 H   0  0  0  0  0  0  0  0  0  0  0  0
    5.0512   -1.3236    2.4420 H   0  0  0  0  0  0  0  0  0  0  0  0
    6.2916   -0.0103    2.4672 H   0  0  0  0  0  0  0  0  0  0  0  0
    2.4168    1.4910    1.1750 H   0  0  0  0  0  0  0  0  0  0  0  0
   -0.0134    1.7445    0.8717 H   0  0  0  0  0  0  0  0  0  0  0  0
   -2.1212    1.0624    0.0216 H   0  0  0  0  0  0  0  0  0  0  0  0
   -2.0693   -1.4561   -1.6119 H   0  0  0  0  0  0  0  0  0  0  0  0
   -4.1940   -2.1201   -2.4512 H   0  0  0  0  0  0  0  0  0  0  0  0
   -7.7765    0.0496   -1.7288 H   0  0  0  0  0  0  0  0  0  0  0  0
   -6.0384    2.8583   -0.2052 H   0  0  0  0  0  0  0  0  0  0  0  0
   -7.6118    2.2862   -0.8550 H   0  0  0  0  0  0  0  0  0  0  0  0
   -9.1457    0.8654    0.8359 H   0  0  0  0  0  0  0  0  0  0  0  0
   -9.1336    0.6952    3.5043 H   0  0  0  0  0  0  0  0  0  0  0  0
   -5.4585    2.3772    2.2565 H   0  0  0  0  0  0  0  0  0  0  0  0
   -4.0912    1.4028   -0.1401 H   0  0  0  0  0  0  0  0  0  0  0  0
   -0.0970   -1.7870   -1.4467 H   0  0  0  0  0  0  0  0  0  0  0  0
    2.3418   -2.0846   -1.1671 H   0  0  0  0  0  0  0  0  0  0  0  0
  1  2  1  0
  2  3  2  0
  2  4  2  0
  2  5  1  0
  5  6  1  0
  6  7  1  0
  7  8  1  0
  8  9  1  0
  9 10  1  0
  8 11  1  0
 11 12  2  0
 12 13  1  0
 13 14  2  0
 14 15  1  0
 15 16  2  0
 16 17  1  0
 17 18  2  0
 18 19  1  0
 19 20  1  0
 19 21  2  0
 21 22  1  0
 22 23  1  0
 23 24  1  0
 24 25  1  0
 25 26  2  0
 26 27  1  0
 27 28  2  0
 22 29  2  0
 14 30  1  0
 30 31  2  0
 10  5  1  0
 31 11  1  0
 29 17  1  0
 28 24  1  0
  1 32  1  0
  1 33  1  0
  1 34  1  0
  6 35  1  0
  6 36  1  0
  7 37  1  0
  7 38  1  0
  9 39  1  0
  9 40  1  0
 10 41  1  0
 10 42  1  0
 12 43  1  0
 13 44  1  0
 15 45  1  0
 16 46  1  0
 18 47  1  0
 21 48  1  0
 23 49  1  0
 23 50  1  0
 25 51  1  0
 26 52  1  0
 28 53  1  0
 29 54  1  0
 30 55  1  0
 31 56  1  0
M  END
$$$$
[H]Oc1c([H])c(C([H])([H])[H])c(C([H])([H])[C@@]([H])(C(=O)N2C([H])([H])C([H])([H])C([H])([H])[C@@]2([H])C(=O)N([H])[C@]([H])(C(=O)N([H])[C@]([H])(C(=O)N([H])[H])C([H])([H])c2c([H])c([H])c([H])c([H])c2[H])C([H])([H])c2c([H])c([H])c([H])c([H])c2[H])N([H])[H])c(C([H])([H])[H])c1[H]
     RDKit          3D

 85 88  0  0  0  0  0  0  0  0999 V2000
   -5.9613   -2.4248    1.5683 C   0  0  0  0  0  0  0  0  0  0  0  0
   -6.8257   -1.3832    0.9905 C   0  0  0  0  0  0  0  0  0  0  0  0
   -8.1906   -1.6297    1.0601 C   0  0  0  0  0  0  0  0  0  0  0  0
   -9.1551   -0.7465    0.6336 C   0  0  0  0  0  0  0  0  0  0  0  0
  -10.5225   -1.0719    0.7420 O   0  0  0  0  0  0  0  0  0  0  0  0
   -8.7340    0.4387    0.1148 C   0  0  0  0  0  0  0  0  0  0  0  0
   -7.3561    0.7031    0.0345 C   0  0  0  0  0  0  0  0  0  0  0  0
   -6.9991    2.0266   -0.5329 C   0  0  0  0  0  0  0  0  0  0  0  0
   -6.3998   -0.1835    0.4600 C   0  0  0  0  0  0  0  0  0  0  0  0
   -4.9424    0.0425    0.2630 C   0  0  0  0  0  0  0  0  0  0  0  0
   -4.5118   -0.4683   -1.1052 C   0  0  2  0  0  0  0  0  0  0  0  0
   -4.7764   -1.8932   -1.2317 N   0  0  0  0  0  0  0  0  0  0  0  0
   -3.1413   -0.1844   -1.4218 C   0  0  0  0  0  0  0  0  0  0  0  0
   -2.3201   -1.1763   -1.3848 O   0  0  0  0  0  0  0  0  0  0  0  0
   -2.5599    1.0593   -1.7848 N   0  0  0  0  0  0  0  0  0  0  0  0
   -3.2603    2.2965   -1.9161 C   0  0  0  0  0  0  0  0  0  0  0  0
   -2.2192    3.3429   -2.3479 C   0  0  0  0  0  0  0  0  0  0  0  0
   -0.9278    2.7365   -1.8088 C   0  0  0  0  0  0  0  0  0  0  0  0
   -1.1627    1.2630   -2.1330 C   0  0  1  0  0  0  0  0  0  0  0  0
   -0.2695    0.5427   -1.1615 C   0  0  0  0  0  0  0  0  0  0  0  0
   -0.4943    0.4493    0.0411 O   0  0  0  0  0  0  0  0  0  0  0  0
    0.8990   -0.0690   -1.6847 N   0  0  0  0  0  0  0  0  0  0  0  0
    1.8418   -0.7775   -0.8088 C   0  0  1  0  0  0  0  0  0  0  0  0
    1.5804   -2.2647   -0.8954 C   0  0  0  0  0  0  0  0  0  0  0  0
    2.4689   -3.0598   -0.0357 C   0  0  0  0  0  0  0  0  0  0  0  0
    3.7099   -3.5328   -0.4549 C   0  0  0  0  0  0  0  0  0  0  0  0
    4.5125   -4.3223    0.3499 C   0  0  0  0  0  0  0  0  0  0  0  0
    4.1154   -4.6860    1.6345 C   0  0  0  0  0  0  0  0  0  0  0  0
    2.8896   -4.2159    2.0449 C   0  0  0  0  0  0  0  0  0  0  0  0
    2.0918   -3.4386    1.2594 C   0  0  0  0  0  0  0  0  0  0  0  0
    3.2286   -0.5612   -1.3866 C   0  0  0  0  0  0  0  0  0  0  0  0
    3.3017   -0.7431   -2.5950 O   0  0  0  0  0  0  0  0  0  0  0  0
    4.2731   -0.1749   -0.5410 N   0  0  0  0  0  0  0  0  0  0  0  0
    5.3041    0.2022    0.2727 C   0  0  1  0  0  0  0  0  0  0  0  0
    5.5204    1.7554    0.0042 C   0  0  0  0  0  0  0  0  0  0  0  0
    6.6168    2.3294    0.7652 C   0  0  0  0  0  0  0  0  0  0  0  0
    7.9330    2.2933    0.2621 C   0  0  0  0  0  0  0  0  0  0  0  0
    8.9762    2.8639    0.9090 C   0  0  0  0  0  0  0  0  0  0  0  0
    8.8236    3.5296    2.1228 C   0  0  0  0  0  0  0  0  0  0  0  0
    7.5395    3.5724    2.6257 C   0  0  0  0  0  0  0  0  0  0  0  0
    6.4711    2.9970    1.9806 C   0  0  0  0  0  0  0  0  0  0  0  0
    5.0306    0.0053    1.7245 C   0  0  0  0  0  0  0  0  0  0  0  0
    6.0898    0.0641    2.6454 N   0  0  0  0  0  0  0  0  0  0  0  0
    3.8821   -0.2180    2.1555 O   0  0  0  0  0  0  0  0  0  0  0  0
   -5.9904   -3.4056    1.0027 H   0  0  0  0  0  0  0  0  0  0  0  0
   -6.4712   -2.7005    2.5526 H   0  0  0  0  0  0  0  0  0  0  0  0
   -4.9614   -2.1386    1.8667 H   0  0  0  0  0  0  0  0  0  0  0  0
   -8.5726   -2.5726    1.4789 H   0  0  0  0  0  0  0  0  0  0  0  0
  -10.8900   -1.5629   -0.0779 H   0  0  0  0  0  0  0  0  0  0  0  0
   -9.4541    1.1861   -0.2464 H   0  0  0  0  0  0  0  0  0  0  0  0
   -6.0315    2.3302   -0.1338 H   0  0  0  0  0  0  0  0  0  0  0  0
   -7.7642    2.7965   -0.2267 H   0  0  0  0  0  0  0  0  0  0  0  0
   -6.9398    1.9947   -1.6373 H   0  0  0  0  0  0  0  0  0  0  0  0
   -4.3299   -0.4375    1.0673 H   0  0  0  0  0  0  0  0  0  0  0  0
   -4.7337    1.0899    0.3314 H   0  0  0  0  0  0  0  0  0  0  0  0
   -5.2262    0.0300   -1.8173 H   0  0  0  0  0  0  0  0  0  0  0  0
   -5.1964   -2.0999   -2.1438 H   0  0  0  0  0  0  0  0  0  0  0  0
   -4.0054   -2.4847   -0.9280 H   0  0  0  0  0  0  0  0  0  0  0  0
   -4.0124    2.1504   -2.7493 H   0  0  0  0  0  0  0  0  0  0  0  0
   -3.7806    2.6652   -1.0119 H   0  0  0  0  0  0  0  0  0  0  0  0
   -2.4455    4.3228   -1.8376 H   0  0  0  0  0  0  0  0  0  0  0  0
   -2.1494    3.4157   -3.4382 H   0  0  0  0  0  0  0  0  0  0  0  0
   -0.9149    2.8320   -0.6821 H   0  0  0  0  0  0  0  0  0  0  0  0
   -0.0461    3.1325   -2.3064 H   0  0  0  0  0  0  0  0  0  0  0  0
   -0.9229    1.0376   -3.1707 H   0  0  0  0  0  0  0  0  0  0  0  0
    1.1177   -0.0366   -2.6762 H   0  0  0  0  0  0  0  0  0  0  0  0
    1.7758   -0.4160    0.1866 H   0  0  0  0  0  0  0  0  0  0  0  0
    0.5368   -2.5592   -0.7454 H   0  0  0  0  0  0  0  0  0  0  0  0
    1.8325   -2.5832   -1.9631 H   0  0  0  0  0  0  0  0  0  0  0  0
    4.0404   -3.2704   -1.4418 H   0  0  0  0  0  0  0  0  0  0  0  0
    5.4788   -4.7000    0.0394 H   0  0  0  0  0  0  0  0  0  0  0  0
    4.7329   -5.3116    2.2743 H   0  0  0  0  0  0  0  0  0  0  0  0
    2.5853   -4.5112    3.0540 H   0  0  0  0  0  0  0  0  0  0  0  0
    1.1145   -3.0693    1.6066 H   0  0  0  0  0  0  0  0  0  0  0  0
    5.1610   -0.2324   -1.5913 H   0  0  0  0  0  0  0  0  0  0  0  0
    6.3086   -0.1823    0.0505 H   0  0  0  0  0  0  0  0  0  0  0  0
    5.6835    1.8482   -1.0901 H   0  0  0  0  0  0  0  0  0  0  0  0
    4.5805    2.2667    0.2474 H   0  0  0  0  0  0  0  0  0  0  0  0
    8.0399    1.7649   -0.6901 H   0  0  0  0  0  0  0  0  0  0  0  0
   10.0038    2.8335    0.5237 H   0  0  0  0  0  0  0  0  0  0  0  0
    9.6639    3.9832    2.6159 H   0  0  0  0  0  0  0  0  0  0  0  0
    7.4202    4.0907    3.5825 H   0  0  0  0  0  0  0  0  0  0  0  0
    5.4574    3.0367    2.3960 H   0  0  0  0  0  0  0  0  0  0  0  0
    7.0397   -0.1939    2.3653 H   0  0  0  0  0  0  0  0  0  0  0  0
    5.8958    0.3730    3.6350 H   0  0  0  0  0  0  0  0  0  0  0  0
  1  2  1  0
  2  3  2  0
  3  4  1  0
  4  5  1  0
  4  6  2  0
  6  7  1  0
  7  8  1  0
  7  9  2  0
  9 10  1  0
 10 11  1  0
 11 12  1  0
 11 13  1  0
 13 14  2  0
 13 15  1  0
 15 16  1  0
 16 17  1  0
 17 18  1  0
 18 19  1  0
 19 20  1  0
 20 21  2  0
 20 22  1  0
 22 23  1  0
 23 24  1  0
 24 25  1  0
 25 26  2  0
 26 27  1  0
 27 28  2  0
 28 29  1  0
 29 30  2  0
 23 31  1  0
 31 32  2  0
 31 33  1  0
 33 34  1  0
 34 35  1  0
 35 36  1  0
 36 37  2  0
 37 38  1  0
 38 39  2  0
 39 40  1  0
 40 41  2  0
 34 42  1  0
 42 43  1  0
 42 44  2  0
  9  2  1  0
 19 15  1  0
 30 25  1  0
 41 36  1  0
  1 45  1  0
  1 46  1  0
  1 47  1  0
  3 48  1  0
  5 49  1  0
  6 50  1  0
  8 51  1  0
  8 52  1  0
  8 53  1  0
 10 54  1  0
 10 55  1  0
 11 56  1  6
 12 57  1  0
 12 58  1  0
 16 59  1  0
 16 60  1  0
 17 61  1  0
 17 62  1  0
 18 63  1  0
 18 64  1  0
 19 65  1  6
 22 66  1  0
 23 67  1  1
 24 68  1  0
 24 69  1  0
 26 70  1  0
 27 71  1  0
 28 72  1  0
 29 73  1  0
 30 74  1  0
 33 75  1  0
 34 76  1  6
 35 77  1  0
 35 78  1  0
 37 79  1  0
 38 80  1  0
 39 81  1  0
 40 82  1  0
 41 83  1  0
 43 84  1  0
 43 85  1  0
M  END
$$$$
[H]c1nc(Oc2c([H])c([H])c(N([H])C(=O)N([H])c3c([H])c([H])c(C([H])([H])N4C([H])([H])C([H])([H])N(C([H])([H])C([H])([H])[H])C([H])([H])C4([H])[H])c(C(F)(F)F)c3[H])c([H])c2[H])c([H])c(N([H])C([H])([H])[H])n1
     RDKit          3D

 68 71  0  0  0  0  0  0  0  0999 V2000
  -10.2990   -0.3201   -0.2443 C   0  0  0  0  0  0  0  0  0  0  0  0
   -9.0487    0.5002   -0.4280 C   0  0  0  0  0  0  0  0  0  0  0  0
   -8.1793   -0.0359   -1.4572 N   0  0  0  0  0  0  0  0  0  0  0  0
   -7.0305    0.8062   -1.5517 C   0  0  0  0  0  0  0  0  0  0  0  0
   -5.7154    0.1130   -1.2911 C   0  0  0  0  0  0  0  0  0  0  0  0
   -5.7379   -0.8228   -0.2229 N   0  0  0  0  0  0  0  0  0  0  0  0
   -5.1553   -0.4373    1.0060 C   0  0  0  0  0  0  0  0  0  0  0  0
   -3.7153   -0.2169    1.0542 C   0  0  0  0  0  0  0  0  0  0  0  0
   -2.9459   -0.4458   -0.0457 C   0  0  0  0  0  0  0  0  0  0  0  0
   -1.5554   -0.2549    0.0222 C   0  0  0  0  0  0  0  0  0  0  0  0
   -0.9188    0.1543    1.1522 C   0  0  0  0  0  0  0  0  0  0  0  0
    0.4451    0.3547    1.3623 N   0  0  0  0  0  0  0  0  0  0  0  0
    1.4499   -0.2261    0.5465 C   0  0  0  0  0  0  0  0  0  0  0  0
    1.1958   -0.9699   -0.4220 O   0  0  0  0  0  0  0  0  0  0  0  0
    2.8063    0.0526    0.8476 N   0  0  0  0  0  0  0  0  0  0  0  0
    3.8841   -0.4730    0.1219 C   0  0  0  0  0  0  0  0  0  0  0  0
    5.0696    0.2695    0.1595 C   0  0  0  0  0  0  0  0  0  0  0  0
    6.1724   -0.1959   -0.5017 C   0  0  0  0  0  0  0  0  0  0  0  0
    6.1984   -1.3743   -1.2203 C   0  0  0  0  0  0  0  0  0  0  0  0
    7.3559   -1.8175   -1.8874 O   0  0  0  0  0  0  0  0  0  0  0  0
    8.4788   -0.9936   -1.7796 C   0  0  0  0  0  0  0  0  0  0  0  0
    9.3306   -1.0781   -0.6992 C   0  0  0  0  0  0  0  0  0  0  0  0
   10.4383   -0.2312   -0.6411 C   0  0  0  0  0  0  0  0  0  0  0  0
   11.3426   -0.2777    0.4449 N   0  0  0  0  0  0  0  0  0  0  0  0
   12.4721    0.6190    0.4560 C   0  0  0  0  0  0  0  0  0  0  0  0
   10.6148    0.6290   -1.6528 N   0  0  0  0  0  0  0  0  0  0  0  0
    9.7904    0.7181   -2.7086 C   0  0  0  0  0  0  0  0  0  0  0  0
    8.7293   -0.1014   -2.7527 N   0  0  0  0  0  0  0  0  0  0  0  0
    5.0337   -2.0940   -1.2508 C   0  0  0  0  0  0  0  0  0  0  0  0
    3.8935   -1.6380   -0.5818 C   0  0  0  0  0  0  0  0  0  0  0  0
   -1.7503    0.3770    2.2572 C   0  0  0  0  0  0  0  0  0  0  0  0
   -3.1090    0.2069    2.2445 C   0  0  0  0  0  0  0  0  0  0  0  0
   -3.9076    0.4692    3.4596 C   0  0  0  0  0  0  0  0  0  0  0  0
   -3.0267    0.8724    4.4765 F   0  0  0  0  0  0  0  0  0  0  0  0
   -4.5531   -0.6222    3.9660 F   0  0  0  0  0  0  0  0  0  0  0  0
   -4.7451    1.5847    3.3219 F   0  0  0  0  0  0  0  0  0  0  0  0
   -6.9874   -1.4884    0.0062 C   0  0  0  0  0  0  0  0  0  0  0  0
   -7.8513   -1.4181   -1.2341 C   0  0  0  0  0  0  0  0  0  0  0  0
  -10.0056   -1.2236    0.3376 H   0  0  0  0  0  0  0  0  0  0  0  0
  -11.0156    0.2828    0.3494 H   0  0  0  0  0  0  0  0  0  0  0  0
  -10.7451   -0.5533   -1.2099 H   0  0  0  0  0  0  0  0  0  0  0  0
   -9.3902    1.5064   -0.7967 H   0  0  0  0  0  0  0  0  0  0  0  0
   -8.5282    0.6942    0.5188 H   0  0  0  0  0  0  0  0  0  0  0  0
   -6.9427    1.2787   -2.5729 H   0  0  0  0  0  0  0  0  0  0  0  0
   -7.0852    1.6803   -0.8419 H   0  0  0  0  0  0  0  0  0  0  0  0
   -5.3787   -0.3639   -2.2424 H   0  0  0  0  0  0  0  0  0  0  0  0
   -4.9782    0.9378   -1.0987 H   0  0  0  0  0  0  0  0  0  0  0  0
   -5.3596   -1.2873    1.7313 H   0  0  0  0  0  0  0  0  0  0  0  0
   -5.7610    0.3966    1.4141 H   0  0  0  0  0  0  0  0  0  0  0  0
   -3.3300   -0.7898   -1.0118 H   0  0  0  0  0  0  0  0  0  0  0  0
   -0.9627   -0.4277   -0.8741 H   0  0  0  0  0  0  0  0  0  0  0  0
    0.7597    0.9698    2.1611 H   0  0  0  0  0  0  0  0  0  0  0  0
    3.0013    0.6928    1.6707 H   0  0  0  0  0  0  0  0  0  0  0  0
    5.0877    1.2125    0.7209 H   0  0  0  0  0  0  0  0  0  0  0  0
    7.0847    0.3965   -0.4601 H   0  0  0  0  0  0  0  0  0  0  0  0
    9.1416   -1.7902    0.0899 H   0  0  0  0  0  0  0  0  0  0  0  0
   11.2010   -0.9471    1.2284 H   0  0  0  0  0  0  0  0  0  0  0  0
   12.6067    1.1140   -0.5277 H   0  0  0  0  0  0  0  0  0  0  0  0
   13.4237    0.0623    0.6491 H   0  0  0  0  0  0  0  0  0  0  0  0
   12.3043    1.3858    1.2464 H   0  0  0  0  0  0  0  0  0  0  0  0
    9.9776    1.4417   -3.5159 H   0  0  0  0  0  0  0  0  0  0  0  0
    5.0003   -3.0327   -1.8043 H   0  0  0  0  0  0  0  0  0  0  0  0
    3.0130   -2.2945   -0.6480 H   0  0  0  0  0  0  0  0  0  0  0  0
   -1.3081    0.7006    3.1773 H   0  0  0  0  0  0  0  0  0  0  0  0
   -7.5417   -1.0573    0.8567 H   0  0  0  0  0  0  0  0  0  0  0  0
   -6.7530   -2.5420    0.2777 H   0  0  0  0  0  0  0  0  0  0  0  0
   -7.2335   -1.7544   -2.0856 H   0  0  0  0  0  0  0  0  0  0  0  0
   -8.7522   -2.0077   -1.0717 H   0  0  0  0  0  0  0  0  0  0  0  0
  1  2  1  0
  2  3  1  0
  3  4  1  0
  4  5  1  0
  5  6  1  0
  6  7  1  0
  7  8  1  0
  8  9  2  0
  9 10  1  0
 10 11  2  0
 11 12  1  0
 12 13  1  0
 13 14  2  0
 13 15  1  0
 15 16  1  0
 16 17  2  0
 17 18  1  0
 18 19  2  0
 19 20  1  0
 20 21  1  0
 21 22  2  0
 22 23  1  0
 23 24  1  0
 24 25  1  0
 23 26  2  0
 26 27  1  0
 27 28  2  0
 19 29  1  0
 29 30  2  0
 11 31  1  0
 31 32  2  0
 32 33  1  0
 33 34  1  0
 33 35  1  0
 33 36  1  0
  6 37  1  0
 37 38  1  0
 38  3  1  0
 32  8  1  0
 30 16  1  0
 28 21  1  0
  1 39  1  0
  1 40  1  0
  1 41  1  0
  2 42  1  0
  2 43  1  0
  4 44  1  0
  4 45  1  0
  5 46  1  0
  5 47  1  0
  7 48  1  0
  7 49  1  0
  9 50  1  0
 10 51  1  0
 12 52  1  0
 15 53  1  0
 17 54  1  0
 18 55  1  0
 22 56  1  0
 24 57  1  0
 25 58  1  0
 25 59  1  0
 25 60  1  0
 27 61  1  0
 29 62  1  0
 30 63  1  0
 31 64  1  0
 37 65  1  0
 37 66  1  0
 38 67  1  0
 38 68  1  0
M  END
$$$$
[H]C#CC(=O)N([H])c1sc(N([H])c2c([H])c([H])c3c([H])c([H])c([H])c([H])c3c2[H])nc1C(=O)N([H])[H]
     RDKit          3D

 36 38  0  0  0  0  0  0  0  0999 V2000
    3.5996   -4.3243   -0.0038 N   0  0  0  0  0  0  0  0  0  0  0  0
    3.9839   -2.9612   -0.0915 C   0  0  0  0  0  0  0  0  0  0  0  0
    5.1901   -2.7317   -0.2253 O   0  0  0  0  0  0  0  0  0  0  0  0
    2.9625   -1.8588   -0.0233 C   0  0  0  0  0  0  0  0  0  0  0  0
    1.7081   -2.1301    0.1117 N   0  0  0  0  0  0  0  0  0  0  0  0
    0.8070   -1.1657    0.1685 C   0  0  0  0  0  0  0  0  0  0  0  0
   -0.6150   -1.3233    0.2961 N   0  0  0  0  0  0  0  0  0  0  0  0
   -1.5490   -0.3131    0.3741 C   0  0  0  0  0  0  0  0  0  0  0  0
   -1.3448    0.9875    0.6805 C   0  0  0  0  0  0  0  0  0  0  0  0
   -2.3704    1.9236    0.6936 C   0  0  0  0  0  0  0  0  0  0  0  0
   -3.6454    1.5417    0.3894 C   0  0  0  0  0  0  0  0  0  0  0  0
   -4.6910    2.4433    0.3910 C   0  0  0  0  0  0  0  0  0  0  0  0
   -5.9774    2.0676    0.0854 C   0  0  0  0  0  0  0  0  0  0  0  0
   -6.2449    0.7516   -0.2346 C   0  0  0  0  0  0  0  0  0  0  0  0
   -5.2171   -0.1544   -0.2403 C   0  0  0  0  0  0  0  0  0  0  0  0
   -3.9120    0.2178    0.0679 C   0  0  0  0  0  0  0  0  0  0  0  0
   -2.8813   -0.6620    0.0672 C   0  0  0  0  0  0  0  0  0  0  0  0
    1.7764    0.2235    0.0237 S   0  0  0  0  0  0  0  0  0  0  0  0
    3.3304   -0.5429   -0.1054 C   0  0  0  0  0  0  0  0  0  0  0  0
    4.5931    0.1015   -0.2537 N   0  0  0  0  0  0  0  0  0  0  0  0
    4.6087    1.5341   -0.3050 C   0  0  0  0  0  0  0  0  0  0  0  0
    3.5389    2.2012   -0.2215 O   0  0  0  0  0  0  0  0  0  0  0  0
    5.8374    2.2568   -0.4526 C   0  0  0  0  0  0  0  0  0  0  0  0
    6.8683    2.8828   -0.5647 C   0  0  0  0  0  0  0  0  0  0  0  0
    3.5315   -4.8431    0.8853 H   0  0  0  0  0  0  0  0  0  0  0  0
    3.3753   -4.8219   -0.8893 H   0  0  0  0  0  0  0  0  0  0  0  0
   -0.9333   -2.3422    0.3325 H   0  0  0  0  0  0  0  0  0  0  0  0
   -0.3554    1.3258    0.9387 H   0  0  0  0  0  0  0  0  0  0  0  0
   -2.1375    2.9262    0.9427 H   0  0  0  0  0  0  0  0  0  0  0  0
   -4.4566    3.4836    0.6481 H   0  0  0  0  0  0  0  0  0  0  0  0
   -6.8027    2.7601    0.0827 H   0  0  0  0  0  0  0  0  0  0  0  0
   -7.2563    0.4092   -0.4847 H   0  0  0  0  0  0  0  0  0  0  0  0
   -5.4269   -1.1769   -0.4893 H   0  0  0  0  0  0  0  0  0  0  0  0
   -3.1266   -1.7049   -0.1921 H   0  0  0  0  0  0  0  0  0  0  0  0
    5.4681   -0.4158   -0.3229 H   0  0  0  0  0  0  0  0  0  0  0  0
    7.7645    3.4345   -0.6794 H   0  0  0  0  0  0  0  0  0  0  0  0
  1  2  1  0
  2  3  2  0
  2  4  1  0
  4  5  1  0
  5  6  2  0
  6  7  1  0
  7  8  1  0
  8  9  2  0
  9 10  1  0
 10 11  2  0
 11 12  1  0
 12 13  2  0
 13 14  1  0
 14 15  2  0
 15 16  1  0
 16 17  2  0
  6 18  1  0
 18 19  1  0
 19 20  1  0
 20 21  1  0
 21 22  2  0
 21 23  1  0
 23 24  3  0
 19  4  2  0
 17  8  1  0
 16 11  1  0
  1 25  1  0
  1 26  1  0
  7 27  1  0
  9 28  1  0
 10 29  1  0
 12 30  1  0
 13 31  1  0
 14 32  1  0
 15 33  1  0
 17 34  1  0
 20 35  1  0
 24 36  1  0
M  END
$$$$
[H]OC(=O)C([H])([H])C([H])([H])c1sc(-c2c([H])c3c([H])c(Oc4c([H])nc(S(=O)(=O)C([H])([H])[H])c([H])c4[H])c(C4([H])N(C([H])([H])[H])C(=O)C([H])([H])C4([H])[H])c([H])c3n2[H])nc1[H]
     RDKit          3D

 61 65  0  0  0  0  0  0  0  0999 V2000
   -4.6585   -3.3276    0.2814 C   0  0  0  0  0  0  0  0  0  0  0  0
   -3.2831   -3.7725    0.3733 N   0  0  0  0  0  0  0  0  0  0  0  0
   -2.2252   -3.6664   -0.5802 C   0  0  0  0  0  0  0  0  0  0  0  0
   -1.5612   -5.0224   -0.4288 C   0  0  0  0  0  0  0  0  0  0  0  0
   -1.5899   -5.3217    1.0224 C   0  0  0  0  0  0  0  0  0  0  0  0
   -2.7144   -4.4407    1.4925 C   0  0  0  0  0  0  0  0  0  0  0  0
   -3.0473   -4.3545    2.6955 O   0  0  0  0  0  0  0  0  0  0  0  0
   -1.2768   -2.5614   -0.3888 C   0  0  0  0  0  0  0  0  0  0  0  0
    0.0456   -2.7279   -0.0360 C   0  0  0  0  0  0  0  0  0  0  0  0
    0.9261   -1.6643    0.1409 C   0  0  0  0  0  0  0  0  0  0  0  0
    2.2230   -1.5714    0.4737 N   0  0  0  0  0  0  0  0  0  0  0  0
    2.6483   -0.3054    0.5215 C   0  0  0  0  0  0  0  0  0  0  0  0
    1.5468    0.4774    0.1961 C   0  0  0  0  0  0  0  0  0  0  0  0
    0.4769   -0.3747   -0.0399 C   0  0  0  0  0  0  0  0  0  0  0  0
   -0.8405   -0.1882   -0.3927 C   0  0  0  0  0  0  0  0  0  0  0  0
   -1.7079   -1.2620   -0.5657 C   0  0  0  0  0  0  0  0  0  0  0  0
   -3.0044   -1.0276   -0.9160 O   0  0  0  0  0  0  0  0  0  0  0  0
   -3.4425    0.2757   -1.0926 C   0  0  0  0  0  0  0  0  0  0  0  0
   -3.9724    0.9989   -0.0188 C   0  0  0  0  0  0  0  0  0  0  0  0
   -4.4213    2.2860   -0.1250 C   0  0  0  0  0  0  0  0  0  0  0  0
   -4.3447    2.8948   -1.3555 C   0  0  0  0  0  0  0  0  0  0  0  0
   -3.8412    2.2232   -2.3995 N   0  0  0  0  0  0  0  0  0  0  0  0
   -3.3918    0.9411   -2.3022 C   0  0  0  0  0  0  0  0  0  0  0  0
   -4.9147    4.5385   -1.5024 S   0  0  0  0  0  0  0  0  0  0  0  0
   -5.5189    5.1335    0.0574 C   0  0  0  0  0  0  0  0  0  0  0  0
   -6.0400    4.6579   -2.4970 O   0  0  0  0  0  0  0  0  0  0  0  0
   -3.7811    5.4423   -1.9143 O   0  0  0  0  0  0  0  0  0  0  0  0
    3.9949    0.1881    0.8470 C   0  0  0  0  0  0  0  0  0  0  0  0
    5.0533   -0.5385    1.1588 N   0  0  0  0  0  0  0  0  0  0  0  0
    6.1765    0.0441    1.4199 C   0  0  0  0  0  0  0  0  0  0  0  0
    6.2238    1.4116    1.3616 C   0  0  0  0  0  0  0  0  0  0  0  0
    7.3931    2.3091    1.6263 C   0  0  0  0  0  0  0  0  0  0  0  0
    8.1402    2.5061    0.3470 C   0  0  0  0  0  0  0  0  0  0  0  0
    7.2869    3.1249   -0.6957 C   0  0  0  0  0  0  0  0  0  0  0  0
    7.3062    4.5004   -0.8335 O   0  0  0  0  0  0  0  0  0  0  0  0
    6.5813    2.3714   -1.4108 O   0  0  0  0  0  0  0  0  0  0  0  0
    4.5946    1.7783    0.9205 S   0  0  0  0  0  0  0  0  0  0  0  0
   -5.3784   -4.0877    0.6753 H   0  0  0  0  0  0  0  0  0  0  0  0
   -4.8767   -2.3994    0.8074 H   0  0  0  0  0  0  0  0  0  0  0  0
   -4.9588   -3.1614   -0.7956 H   0  0  0  0  0  0  0  0  0  0  0  0
   -2.6702   -3.6606   -1.6190 H   0  0  0  0  0  0  0  0  0  0  0  0
   -2.2367   -5.7513   -0.9690 H   0  0  0  0  0  0  0  0  0  0  0  0
   -0.5979   -5.1050   -0.9261 H   0  0  0  0  0  0  0  0  0  0  0  0
   -1.8993   -6.4026    1.1471 H   0  0  0  0  0  0  0  0  0  0  0  0
   -0.6843   -5.1785    1.5969 H   0  0  0  0  0  0  0  0  0  0  0  0
    0.4386   -3.7001    0.1116 H   0  0  0  0  0  0  0  0  0  0  0  0
    2.8275   -2.4062    0.6728 H   0  0  0  0  0  0  0  0  0  0  0  0
    1.5331    1.5694    0.1385 H   0  0  0  0  0  0  0  0  0  0  0  0
   -1.1749    0.8399   -0.5309 H   0  0  0  0  0  0  0  0  0  0  0  0
   -4.0163    0.4938    0.9212 H   0  0  0  0  0  0  0  0  0  0  0  0
   -4.8262    2.8015    0.7523 H   0  0  0  0  0  0  0  0  0  0  0  0
   -2.9904    0.4273   -3.1651 H   0  0  0  0  0  0  0  0  0  0  0  0
   -5.7370    6.2111   -0.0535 H   0  0  0  0  0  0  0  0  0  0  0  0
   -6.4487    4.5407    0.2911 H   0  0  0  0  0  0  0  0  0  0  0  0
   -4.7307    4.9348    0.8270 H   0  0  0  0  0  0  0  0  0  0  0  0
    7.0908   -0.5222    1.6862 H   0  0  0  0  0  0  0  0  0  0  0  0
    8.0682    1.7868    2.3495 H   0  0  0  0  0  0  0  0  0  0  0  0
    7.0097    3.2549    2.0534 H   0  0  0  0  0  0  0  0  0  0  0  0
    8.5091    1.5446   -0.0857 H   0  0  0  0  0  0  0  0  0  0  0  0
    9.0829    3.1037    0.5054 H   0  0  0  0  0  0  0  0  0  0  0  0
    7.6270    4.8904   -1.7106 H   0  0  0  0  0  0  0  0  0  0  0  0
  1  2  1  0
  2  3  1  0
  3  4  1  0
  4  5  1  0
  5  6  1  0
  6  7  2  0
  3  8  1  0
  8  9  2  0
  9 10  1  0
 10 11  1  0
 11 12  1  0
 12 13  2  0
 13 14  1  0
 14 15  1  0
 15 16  2  0
 16 17  1  0
 17 18  1  0
 18 19  2  0
 19 20  1  0
 20 21  2  0
 21 22  1  0
 22 23  2  0
 21 24  1  0
 24 25  1  0
 24 26  2  0
 24 27  2  0
 12 28  1  0
 28 29  2  0
 29 30  1  0
 30 31  2  0
 31 32  1  0
 32 33  1  0
 33 34  1  0
 34 35  1  0
 34 36  2  0
 31 37  1  0
  6  2  1  0
 16  8  1  0
 23 18  1  0
 37 28  1  0
 14 10  2  0
  1 38  1  0
  1 39  1  0
  1 40  1  0
  3 41  1  0
  4 42  1  0
  4 43  1  0
  5 44  1  0
  5 45  1  0
  9 46  1  0
 11 47  1  0
 13 48  1  0
 15 49  1  0
 19 50  1  0
 20 51  1  0
 23 52  1  0
 25 53  1  0
 25 54  1  0
 25 55  1  0
 30 56  1  0
 32 57  1  0
 32 58  1  0
 33 59  1  0
 33 60  1  0
 35 61  1  0
M  END
$$$$
[H]c1nc(N([H])[H])nc([H])c1N([H])C(=O)c1c([H])c(N([H])C(=O)c2c([H])c([H])c(C([H])([H])N3C([H])([H])C([H])([H])N(C([H])([H])[H])C([H])([H])C3([H])[H])c(C(F)(F)F)c2[H])c([H])c([H])c1C([H])([H])[H]
     RDKit          3D

 66 69  0  0  0  0  0  0  0  0999 V2000
   -8.7451    2.2478   -1.3640 C   0  0  0  0  0  0  0  0  0  0  0  0
   -7.5824    1.7833   -0.6839 N   0  0  0  0  0  0  0  0  0  0  0  0
   -7.8204    1.0773    0.5459 C   0  0  0  0  0  0  0  0  0  0  0  0
   -7.7116   -0.3955    0.4340 C   0  0  0  0  0  0  0  0  0  0  0  0
   -6.3577   -0.7649   -0.0303 N   0  0  0  0  0  0  0  0  0  0  0  0
   -5.3595   -0.0545    0.7614 C   0  0  0  0  0  0  0  0  0  0  0  0
   -3.9850   -0.5639    0.5599 C   0  0  0  0  0  0  0  0  0  0  0  0
   -3.7651   -1.6705   -0.2156 C   0  0  0  0  0  0  0  0  0  0  0  0
   -2.4765   -2.1942   -0.3843 C   0  0  0  0  0  0  0  0  0  0  0  0
   -1.3910   -1.6082    0.2284 C   0  0  0  0  0  0  0  0  0  0  0  0
   -1.6598   -0.5029    0.9959 C   0  0  0  0  0  0  0  0  0  0  0  0
   -2.9172    0.0464    1.1883 C   0  0  0  0  0  0  0  0  0  0  0  0
   -3.1124    1.2540    2.0370 C   0  0  0  0  0  0  0  0  0  0  0  0
   -3.6244    2.3291    1.3836 F   0  0  0  0  0  0  0  0  0  0  0  0
   -3.8633    0.9297    3.1771 F   0  0  0  0  0  0  0  0  0  0  0  0
   -1.8677    1.6233    2.5263 F   0  0  0  0  0  0  0  0  0  0  0  0
   -0.0390   -2.1502    0.0636 C   0  0  0  0  0  0  0  0  0  0  0  0
    0.0220   -3.3304   -0.3414 O   0  0  0  0  0  0  0  0  0  0  0  0
    1.0969   -1.4080    0.3355 N   0  0  0  0  0  0  0  0  0  0  0  0
    2.4409   -1.8390    0.2154 C   0  0  0  0  0  0  0  0  0  0  0  0
    2.8565   -3.1487    0.2130 C   0  0  0  0  0  0  0  0  0  0  0  0
    4.1853   -3.4755    0.0524 C   0  0  0  0  0  0  0  0  0  0  0  0
    5.1636   -2.4853   -0.1146 C   0  0  0  0  0  0  0  0  0  0  0  0
    6.5703   -2.9141   -0.3363 C   0  0  0  0  0  0  0  0  0  0  0  0
    4.7988   -1.1868   -0.1163 C   0  0  0  0  0  0  0  0  0  0  0  0
    3.4521   -0.8961    0.0476 C   0  0  0  0  0  0  0  0  0  0  0  0
    5.6831   -0.0232   -0.2298 C   0  0  0  0  0  0  0  0  0  0  0  0
    5.1697    1.0438   -0.7441 O   0  0  0  0  0  0  0  0  0  0  0  0
    7.0168    0.0659    0.1576 N   0  0  0  0  0  0  0  0  0  0  0  0
    7.8622    1.1922    0.0152 C   0  0  0  0  0  0  0  0  0  0  0  0
    9.0109    1.2649    0.8073 C   0  0  0  0  0  0  0  0  0  0  0  0
    9.8748    2.2792    0.7174 N   0  0  0  0  0  0  0  0  0  0  0  0
    9.6816    3.2856   -0.1439 C   0  0  0  0  0  0  0  0  0  0  0  0
   10.6064    4.3680   -0.2390 N   0  0  0  0  0  0  0  0  0  0  0  0
    8.5930    3.2492   -0.9183 N   0  0  0  0  0  0  0  0  0  0  0  0
    7.6846    2.2312   -0.8588 C   0  0  0  0  0  0  0  0  0  0  0  0
   -6.3554   -0.2458   -1.4075 C   0  0  0  0  0  0  0  0  0  0  0  0
   -6.5518    1.2337   -1.4863 C   0  0  0  0  0  0  0  0  0  0  0  0
   -9.0112    1.5052   -2.1654 H   0  0  0  0  0  0  0  0  0  0  0  0
   -8.4620    3.2076   -1.8751 H   0  0  0  0  0  0  0  0  0  0  0  0
   -9.5706    2.4154   -0.6659 H   0  0  0  0  0  0  0  0  0  0  0  0
   -7.2470    1.4935    1.3938 H   0  0  0  0  0  0  0  0  0  0  0  0
   -8.8984    1.2988    0.8154 H   0  0  0  0  0  0  0  0  0  0  0  0
   -8.3939   -0.7546   -0.3685 H   0  0  0  0  0  0  0  0  0  0  0  0
   -7.9143   -0.8525    1.4060 H   0  0  0  0  0  0  0  0  0  0  0  0
   -5.4810    0.9961    0.5351 H   0  0  0  0  0  0  0  0  0  0  0  0
   -5.6374   -0.2272    1.8213 H   0  0  0  0  0  0  0  0  0  0  0  0
   -4.6064   -2.1637   -0.6907 H   0  0  0  0  0  0  0  0  0  0  0  0
   -2.3063   -3.0670   -0.9977 H   0  0  0  0  0  0  0  0  0  0  0  0
   -0.8407    0.0062    1.5094 H   0  0  0  0  0  0  0  0  0  0  0  0
    0.9559   -0.4082    0.6723 H   0  0  0  0  0  0  0  0  0  0  0  0
    2.1365   -3.9515    0.3523 H   0  0  0  0  0  0  0  0  0  0  0  0
    4.5261   -4.5028    0.0491 H   0  0  0  0  0  0  0  0  0  0  0  0
    6.5362   -3.9463   -0.8219 H   0  0  0  0  0  0  0  0  0  0  0  0
    7.1061   -2.3070   -1.0910 H   0  0  0  0  0  0  0  0  0  0  0  0
    7.1003   -3.0876    0.6044 H   0  0  0  0  0  0  0  0  0  0  0  0
    3.1214    0.1558    0.0489 H   0  0  0  0  0  0  0  0  0  0  0  0
    7.4587   -0.7733    0.6327 H   0  0  0  0  0  0  0  0  0  0  0  0
    9.2061    0.4750    1.5165 H   0  0  0  0  0  0  0  0  0  0  0  0
   10.9998    4.8585    0.5851 H   0  0  0  0  0  0  0  0  0  0  0  0
   10.8822    4.6582   -1.1998 H   0  0  0  0  0  0  0  0  0  0  0  0
    6.8664    2.2905   -1.5252 H   0  0  0  0  0  0  0  0  0  0  0  0
   -7.2253   -0.7259   -1.9106 H   0  0  0  0  0  0  0  0  0  0  0  0
   -5.4614   -0.4994   -1.9761 H   0  0  0  0  0  0  0  0  0  0  0  0
   -5.6072    1.8081   -1.3242 H   0  0  0  0  0  0  0  0  0  0  0  0
   -6.8167    1.4512   -2.5603 H   0  0  0  0  0  0  0  0  0  0  0  0
  1  2  1  0
  2  3  1  0
  3  4  1  0
  4  5  1  0
  5  6  1  0
  6  7  1  0
  7  8  2  0
  8  9  1  0
  9 10  2  0
 10 11  1  0
 11 12  2  0
 12 13  1  0
 13 14  1  0
 13 15  1  0
 13 16  1  0
 10 17  1  0
 17 18  2  0
 17 19  1  0
 19 20  1  0
 20 21  2  0
 21 22  1  0
 22 23  2  0
 23 24  1  0
 23 25  1  0
 25 26  2  0
 25 27  1  0
 27 28  2  0
 27 29  1  0
 29 30  1  0
 30 31  2  0
 31 32  1  0
 32 33  2  0
 33 34  1  0
 33 35  1  0
 35 36  2  0
  5 37  1  0
 37 38  1  0
 38  2  1  0
 12  7  1  0
 26 20  1  0
 36 30  1  0
  1 39  1  0
  1 40  1  0
  1 41  1  0
  3 42  1  0
  3 43  1  0
  4 44  1  0
  4 45  1  0
  6 46  1  0
  6 47  1  0
  8 48  1  0
  9 49  1  0
 11 50  1  0
 19 51  1  0
 21 52  1  0
 22 53  1  0
 24 54  1  0
 24 55  1  0
 24 56  1  0
 26 57  1  0
 29 58  1  0
 31 59  1  0
 34 60  1  0
 34 61  1  0
 36 62  1  0
 37 63  1  0
 37 64  1  0
 38 65  1  0
 38 66  1  0
M  END
$$$$
[H]c1c([H])c([H])c(C([H])([H])[C@@]2([H])C(=O)N([H])[C@@]([H])(C([H])([H])c3c([H])c([H])c([H])c([H])c3[H])C(=O)N([H])[C@@]([H])(C([H])([H])c3c([H])n([H])c4c([H])c([H])c([H])c([H])c34)C(=O)N([H])[C@]([H])(C([H])([H])c3c([H])n([H])c4c([H])c([H])c([H])c([H])c34)C(=O)N([H])[C@@]([H])(C([H])([H])C([H])([H])C([H])([H])C([H])([H])N([H])[H])C(=O)N([H])[C@@]([H])(C([H])(C([H])([H])[H])C([H])([H])[H])C(=O)N2[H])c([H])c1[H]
     RDKit          3D

125131  0  0  0  0  0  0  0  0999 V2000
    0.6226   -6.4375    2.0781 C   0  0  0  0  0  0  0  0  0  0  0  0
    1.2997   -5.7098    0.9712 C   0  0  0  0  0  0  0  0  0  0  0  0
    2.7709   -5.8943    1.0623 C   0  0  0  0  0  0  0  0  0  0  0  0
    0.8520   -4.2673    0.7916 C   0  0  2  0  0  0  0  0  0  0  0  0
   -0.5653   -4.1983    0.4928 N   0  0  0  0  0  0  0  0  0  0  0  0
   -1.3079   -3.2865   -0.2211 C   0  0  0  0  0  0  0  0  0  0  0  0
   -1.9410   -3.7257   -1.2642 O   0  0  0  0  0  0  0  0  0  0  0  0
   -1.5326   -1.8305   -0.0135 C   0  0  2  0  0  0  0  0  0  0  0  0
   -3.0321   -1.6155   -0.0471 C   0  0  0  0  0  0  0  0  0  0  0  0
   -3.6279   -2.4495    1.0710 C   0  0  0  0  0  0  0  0  0  0  0  0
   -5.1375   -2.2764    1.0737 C   0  0  0  0  0  0  0  0  0  0  0  0
   -5.6679   -3.1241    2.2069 C   0  0  0  0  0  0  0  0  0  0  0  0
   -5.0405   -2.5981    3.4189 N   0  0  0  0  0  0  0  0  0  0  0  0
   -0.8266   -1.0197   -0.9740 N   0  0  0  0  0  0  0  0  0  0  0  0
   -1.1954   -0.2183   -2.0131 C   0  0  0  0  0  0  0  0  0  0  0  0
   -1.0961   -0.7126   -3.2122 O   0  0  0  0  0  0  0  0  0  0  0  0
   -1.7177    1.1940   -2.0886 C   0  0  1  0  0  0  0  0  0  0  0  0
   -2.9190    1.1507   -2.9937 C   0  0  0  0  0  0  0  0  0  0  0  0
   -3.6212    2.3894   -3.2748 C   0  0  0  0  0  0  0  0  0  0  0  0
   -3.2956    3.1760   -4.3955 C   0  0  0  0  0  0  0  0  0  0  0  0
   -4.0913    4.2391   -4.3408 N   0  0  0  0  0  0  0  0  0  0  0  0
   -4.8981    4.2008   -3.2817 C   0  0  0  0  0  0  0  0  0  0  0  0
   -5.8751    5.0680   -2.8534 C   0  0  0  0  0  0  0  0  0  0  0  0
   -6.5777    4.7613   -1.7226 C   0  0  0  0  0  0  0  0  0  0  0  0
   -6.3099    3.6113   -1.0325 C   0  0  0  0  0  0  0  0  0  0  0  0
   -5.3391    2.7438   -1.4516 C   0  0  0  0  0  0  0  0  0  0  0  0
   -4.6141    3.0282   -2.5889 C   0  0  0  0  0  0  0  0  0  0  0  0
   -1.8435    1.8728   -0.8606 N   0  0  0  0  0  0  0  0  0  0  0  0
   -0.9655    2.7315   -0.1601 C   0  0  0  0  0  0  0  0  0  0  0  0
   -1.3188    3.9897   -0.1322 O   0  0  0  0  0  0  0  0  0  0  0  0
    0.2760    2.4514    0.5415 C   0  0  2  0  0  0  0  0  0  0  0  0
    0.2501    2.5940    2.0361 C   0  0  0  0  0  0  0  0  0  0  0  0
   -0.1309    3.8899    2.5899 C   0  0  0  0  0  0  0  0  0  0  0  0
    0.6767    5.0012    2.8080 C   0  0  0  0  0  0  0  0  0  0  0  0
   -0.0103    6.0377    3.2710 N   0  0  0  0  0  0  0  0  0  0  0  0
   -1.2965    5.6114    3.3648 C   0  0  0  0  0  0  0  0  0  0  0  0
   -2.3650    6.3501    3.8254 C   0  0  0  0  0  0  0  0  0  0  0  0
   -3.6022    5.7219    3.8739 C   0  0  0  0  0  0  0  0  0  0  0  0
   -3.7287    4.3935    3.4659 C   0  0  0  0  0  0  0  0  0  0  0  0
   -2.6550    3.6747    3.0092 C   0  0  0  0  0  0  0  0  0  0  0  0
   -1.3993    4.2898    2.9514 C   0  0  0  0  0  0  0  0  0  0  0  0
    1.4514    3.1238   -0.0421 N   0  0  0  0  0  0  0  0  0  0  0  0
    2.7497    2.6461   -0.0983 C   0  0  0  0  0  0  0  0  0  0  0  0
    3.6685    3.5321   -0.0467 O   0  0  0  0  0  0  0  0  0  0  0  0
    3.2656    1.2632   -0.2088 C   0  0  2  0  0  0  0  0  0  0  0  0
    2.8101    0.6709   -1.4954 C   0  0  0  0  0  0  0  0  0  0  0  0
    3.3237    1.4570   -2.6459 C   0  0  0  0  0  0  0  0  0  0  0  0
    2.6586    2.4627   -3.2865 C   0  0  0  0  0  0  0  0  0  0  0  0
    3.2487    3.1371   -4.3657 C   0  0  0  0  0  0  0  0  0  0  0  0
    4.5027    2.8175   -4.8167 C   0  0  0  0  0  0  0  0  0  0  0  0
    5.1832    1.8078   -4.1818 C   0  0  0  0  0  0  0  0  0  0  0  0
    4.5976    1.1621   -3.1350 C   0  0  0  0  0  0  0  0  0  0  0  0
    3.0484    0.4820    0.9783 N   0  0  0  0  0  0  0  0  0  0  0  0
    2.6800   -0.8256    1.2138 C   0  0  0  0  0  0  0  0  0  0  0  0
    1.5176   -0.9888    1.7544 O   0  0  0  0  0  0  0  0  0  0  0  0
    3.3647   -2.1210    0.9712 C   0  0  2  0  0  0  0  0  0  0  0  0
    4.8553   -1.9628    0.8828 C   0  0  0  0  0  0  0  0  0  0  0  0
    5.6268   -3.1841    0.6678 C   0  0  0  0  0  0  0  0  0  0  0  0
    5.9768   -3.6362   -0.5738 C   0  0  0  0  0  0  0  0  0  0  0  0
    6.7203   -4.7969   -0.7655 C   0  0  0  0  0  0  0  0  0  0  0  0
    7.1177   -5.5139    0.3210 C   0  0  0  0  0  0  0  0  0  0  0  0
    6.7894   -5.0974    1.5894 C   0  0  0  0  0  0  0  0  0  0  0  0
    6.0598   -3.9576    1.7587 C   0  0  0  0  0  0  0  0  0  0  0  0
    2.8479   -2.8795   -0.1206 N   0  0  0  0  0  0  0  0  0  0  0  0
    1.7238   -3.6893   -0.2381 C   0  0  0  0  0  0  0  0  0  0  0  0
    1.3543   -4.0070   -1.4415 O   0  0  0  0  0  0  0  0  0  0  0  0
    1.0619   -7.4862    2.0644 H   0  0  0  0  0  0  0  0  0  0  0  0
   -0.4457   -6.5958    1.9263 H   0  0  0  0  0  0  0  0  0  0  0  0
    0.9051   -6.0557    3.0832 H   0  0  0  0  0  0  0  0  0  0  0  0
    0.9763   -6.2274    0.0177 H   0  0  0  0  0  0  0  0  0  0  0  0
    2.9616   -6.9883    0.8349 H   0  0  0  0  0  0  0  0  0  0  0  0
    3.3677   -5.3672    0.2908 H   0  0  0  0  0  0  0  0  0  0  0  0
    3.1814   -5.7652    2.0820 H   0  0  0  0  0  0  0  0  0  0  0  0
    1.0506   -3.7883    1.7737 H   0  0  0  0  0  0  0  0  0  0  0  0
   -1.1164   -5.0270    0.9094 H   0  0  0  0  0  0  0  0  0  0  0  0
   -1.2240   -1.5403    1.0094 H   0  0  0  0  0  0  0  0  0  0  0  0
   -3.4154   -2.0388   -0.9835 H   0  0  0  0  0  0  0  0  0  0  0  0
   -3.3299   -0.5831    0.1537 H   0  0  0  0  0  0  0  0  0  0  0  0
   -3.2130   -2.2079    2.0646 H   0  0  0  0  0  0  0  0  0  0  0  0
   -3.4354   -3.5415    0.8427 H   0  0  0  0  0  0  0  0  0  0  0  0
   -5.5439   -2.6017    0.0848 H   0  0  0  0  0  0  0  0  0  0  0  0
   -5.3691   -1.2078    1.1774 H   0  0  0  0  0  0  0  0  0  0  0  0
   -5.2952   -4.1594    2.0599 H   0  0  0  0  0  0  0  0  0  0  0  0
   -6.7759   -3.0702    2.3107 H   0  0  0  0  0  0  0  0  0  0  0  0
   -5.3399   -3.1194    4.2488 H   0  0  0  0  0  0  0  0  0  0  0  0
   -5.1947   -1.5827    3.5354 H   0  0  0  0  0  0  0  0  0  0  0  0
    0.2483   -1.0829   -0.8330 H   0  0  0  0  0  0  0  0  0  0  0  0
   -0.9582    1.7807   -2.7348 H   0  0  0  0  0  0  0  0  0  0  0  0
   -3.6275    0.4152   -2.4932 H   0  0  0  0  0  0  0  0  0  0  0  0
   -2.6705    0.6029   -3.9542 H   0  0  0  0  0  0  0  0  0  0  0  0
   -2.5394    2.9200   -5.1263 H   0  0  0  0  0  0  0  0  0  0  0  0
   -4.0738    5.0142   -5.0609 H   0  0  0  0  0  0  0  0  0  0  0  0
   -6.0813    5.9806   -3.4093 H   0  0  0  0  0  0  0  0  0  0  0  0
   -7.3463    5.4469   -1.3887 H   0  0  0  0  0  0  0  0  0  0  0  0
   -6.9017    3.4229   -0.1418 H   0  0  0  0  0  0  0  0  0  0  0  0
   -5.1073    1.8151   -0.9172 H   0  0  0  0  0  0  0  0  0  0  0  0
   -2.7998    1.6912   -0.3717 H   0  0  0  0  0  0  0  0  0  0  0  0
    0.4949    1.3282    0.4045 H   0  0  0  0  0  0  0  0  0  0  0  0
   -0.5287    1.8389    2.3849 H   0  0  0  0  0  0  0  0  0  0  0  0
    1.2044    2.2136    2.4608 H   0  0  0  0  0  0  0  0  0  0  0  0
    1.7416    5.0217    2.6232 H   0  0  0  0  0  0  0  0  0  0  0  0
    0.3684    6.9878    3.5118 H   0  0  0  0  0  0  0  0  0  0  0  0
   -2.2597    7.3707    4.1389 H   0  0  0  0  0  0  0  0  0  0  0  0
   -4.4297    6.3121    4.2360 H   0  0  0  0  0  0  0  0  0  0  0  0
   -4.7119    3.9504    3.5254 H   0  0  0  0  0  0  0  0  0  0  0  0
   -2.7211    2.6455    2.6870 H   0  0  0  0  0  0  0  0  0  0  0  0
    1.2095    4.0815   -0.4508 H   0  0  0  0  0  0  0  0  0  0  0  0
    4.4056    1.3465   -0.2739 H   0  0  0  0  0  0  0  0  0  0  0  0
    1.6918    0.7314   -1.5715 H   0  0  0  0  0  0  0  0  0  0  0  0
    3.0647   -0.3622   -1.6852 H   0  0  0  0  0  0  0  0  0  0  0  0
    1.6751    2.7390   -2.9771 H   0  0  0  0  0  0  0  0  0  0  0  0
    2.7055    3.9318   -4.8586 H   0  0  0  0  0  0  0  0  0  0  0  0
    4.9937    3.3142   -5.6502 H   0  0  0  0  0  0  0  0  0  0  0  0
    6.1864    1.4983   -4.4874 H   0  0  0  0  0  0  0  0  0  0  0  0
    5.1462    0.3690   -2.6484 H   0  0  0  0  0  0  0  0  0  0  0  0
    3.2238    1.1287    1.8459 H   0  0  0  0  0  0  0  0  0  0  0  0
    3.2163   -2.7860    1.8835 H   0  0  0  0  0  0  0  0  0  0  0  0
    5.1825   -1.5270    1.8773 H   0  0  0  0  0  0  0  0  0  0  0  0
    5.1237   -1.1526    0.1567 H   0  0  0  0  0  0  0  0  0  0  0  0
    5.7032   -3.1150   -1.4772 H   0  0  0  0  0  0  0  0  0  0  0  0
    6.9954   -5.1536   -1.7543 H   0  0  0  0  0  0  0  0  0  0  0  0
    7.6970   -6.4182    0.2233 H   0  0  0  0  0  0  0  0  0  0  0  0
    7.1129   -5.6767    2.4372 H   0  0  0  0  0  0  0  0  0  0  0  0
    5.7749   -3.5844    2.7436 H   0  0  0  0  0  0  0  0  0  0  0  0
    3.4390   -2.7976   -1.0173 H   0  0  0  0  0  0  0  0  0  0  0  0
  1  2  1  0
  2  3  1  0
  2  4  1  0
  4  5  1  0
  5  6  1  0
  6  7  2  0
  6  8  1  0
  8  9  1  0
  9 10  1  0
 10 11  1  0
 11 12  1  0
 12 13  1  0
  8 14  1  0
 14 15  1  0
 15 16  2  0
 15 17  1  0
 17 18  1  0
 18 19  1  0
 19 20  2  0
 20 21  1  0
 21 22  1  0
 22 23  2  0
 23 24  1  0
 24 25  2  0
 25 26  1  0
 26 27  2  0
 17 28  1  0
 28 29  1  0
 29 30  2  0
 29 31  1  0
 31 32  1  0
 32 33  1  0
 33 34  2  0
 34 35  1  0
 35 36  1  0
 36 37  2  0
 37 38  1  0
 38 39  2  0
 39 40  1  0
 40 41  2  0
 31 42  1  0
 42 43  1  0
 43 44  2  0
 43 45  1  0
 45 46  1  0
 46 47  1  0
 47 48  2  0
 48 49  1  0
 49 50  2  0
 50 51  1  0
 51 52  2  0
 45 53  1  0
 53 54  1  0
 54 55  2  0
 54 56  1  0
 56 57  1  0
 57 58  1  0
 58 59  2  0
 59 60  1  0
 60 61  2  0
 61 62  1  0
 62 63  2  0
 56 64  1  0
 64 65  1  0
 65 66  2  0
 65  4  1  0
 27 19  1  0
 41 33  1  0
 52 47  1  0
 63 58  1  0
 27 22  1  0
 41 36  1  0
  1 67  1  0
  1 68  1  0
  1 69  1  0
  2 70  1  0
  3 71  1  0
  3 72  1  0
  3 73  1  0
  4 74  1  1
  5 75  1  0
  8 76  1  1
  9 77  1  0
  9 78  1  0
 10 79  1  0
 10 80  1  0
 11 81  1  0
 11 82  1  0
 12 83  1  0
 12 84  1  0
 13 85  1  0
 13 86  1  0
 14 87  1  0
 17 88  1  6
 18 89  1  0
 18 90  1  0
 20 91  1  0
 21 92  1  0
 23 93  1  0
 24 94  1  0
 25 95  1  0
 26 96  1  0
 28 97  1  0
 31 98  1  1
 32 99  1  0
 32100  1  0
 34101  1  0
 35102  1  0
 37103  1  0
 38104  1  0
 39105  1  0
 40106  1  0
 42107  1  0
 45108  1  6
 46109  1  0
 46110  1  0
 48111  1  0
 49112  1  0
 50113  1  0
 51114  1  0
 52115  1  0
 53116  1  0
 56117  1  1
 57118  1  0
 57119  1  0
 59120  1  0
 60121  1  0
 61122  1  0
 62123  1  0
 63124  1  0
 64125  1  0
M  END
$$$$
[H]OC(=O)c1c([H])c([H])c([H])c(O[H])c1[H]
     RDKit          3D

 16 16  0  0  0  0  0  0  0  0999 V2000
   -3.1872    0.2612   -0.5274 O   0  0  0  0  0  0  0  0  0  0  0  0
   -2.1656   -0.6594   -0.4005 C   0  0  0  0  0  0  0  0  0  0  0  0
   -2.4273   -1.8673   -0.4423 O   0  0  0  0  0  0  0  0  0  0  0  0
   -0.7921   -0.2131   -0.2192 C   0  0  0  0  0  0  0  0  0  0  0  0
   -0.4688    1.1413   -0.1684 C   0  0  0  0  0  0  0  0  0  0  0  0
    0.8143    1.6012    0.0013 C   0  0  0  0  0  0  0  0  0  0  0  0
    1.8610    0.7169    0.1316 C   0  0  0  0  0  0  0  0  0  0  0  0
    1.5486   -0.6261    0.0823 C   0  0  0  0  0  0  0  0  0  0  0  0
    2.6160   -1.5158    0.2152 O   0  0  0  0  0  0  0  0  0  0  0  0
    0.2641   -1.0908   -0.0876 C   0  0  0  0  0  0  0  0  0  0  0  0
   -3.5449    0.6666    0.3516 H   0  0  0  0  0  0  0  0  0  0  0  0
   -1.2903    1.8353   -0.2706 H   0  0  0  0  0  0  0  0  0  0  0  0
    1.0196    2.6595    0.0348 H   0  0  0  0  0  0  0  0  0  0  0  0
    2.8879    1.0431    0.2671 H   0  0  0  0  0  0  0  0  0  0  0  0
    2.8371   -1.8034    1.1574 H   0  0  0  0  0  0  0  0  0  0  0  0
    0.0276   -2.1493   -0.1252 H   0  0  0  0  0  0  0  0  0  0  0  0
  1  2  1  0
  2  3  2  0
  2  4  1  0
  4  5  2  0
  5  6  1  0
  6  7  2  0
  7  8  1  0
  8  9  1  0
  8 10  2  0
 10  4  1  0
  1 11  1  0
  5 12  1  0
  6 13  1  0
  7 14  1  0
  9 15  1  0
 10 16  1  0
M  END
$$$$
[H]c1nc(N2C([H])([H])C([H])([H])c3nc(-c4c([H])c([H])c([H])c([H])c4[H])nc(N([H])c4c([H])c([H])c(C(F)(F)F)c([H])c4[H])c3C([H])([H])C2([H])[H])c(C(F)(F)F)c([H])c1[H]
     RDKit          3D

 59 63  0  0  0  0  0  0  0  0999 V2000
    7.7633   -1.6054    1.3399 F   0  0  0  0  0  0  0  0  0  0  0  0
    7.0036   -2.5499    0.7090 C   0  0  0  0  0  0  0  0  0  0  0  0
    7.6090   -3.1369   -0.3782 F   0  0  0  0  0  0  0  0  0  0  0  0
    6.8316   -3.5879    1.6513 F   0  0  0  0  0  0  0  0  0  0  0  0
    5.6342   -2.0423    0.3239 C   0  0  0  0  0  0  0  0  0  0  0  0
    4.8690   -1.3563    1.2264 C   0  0  0  0  0  0  0  0  0  0  0  0
    3.5719   -0.9380    0.9048 C   0  0  0  0  0  0  0  0  0  0  0  0
    3.0189   -1.2050   -0.3369 C   0  0  0  0  0  0  0  0  0  0  0  0
    1.6630   -0.8837   -0.5846 N   0  0  0  0  0  0  0  0  0  0  0  0
    1.0019    0.3231   -0.4548 C   0  0  0  0  0  0  0  0  0  0  0  0
    1.5867    1.4912   -0.0608 N   0  0  0  0  0  0  0  0  0  0  0  0
    0.8981    2.6107    0.1798 C   0  0  0  0  0  0  0  0  0  0  0  0
   -0.4517    2.5563    0.0288 N   0  0  0  0  0  0  0  0  0  0  0  0
   -1.1108    1.4280   -0.3653 C   0  0  0  0  0  0  0  0  0  0  0  0
   -2.5607    1.5678   -0.3062 C   0  0  0  0  0  0  0  0  0  0  0  0
   -3.3820    0.4112   -0.6855 C   0  0  0  0  0  0  0  0  0  0  0  0
   -3.1060   -0.9300   -0.3508 N   0  0  0  0  0  0  0  0  0  0  0  0
   -1.8153   -1.7097   -0.4560 C   0  0  0  0  0  0  0  0  0  0  0  0
   -0.8991   -0.9315   -1.2958 C   0  0  0  0  0  0  0  0  0  0  0  0
   -0.3691    0.3070   -0.6186 C   0  0  0  0  0  0  0  0  0  0  0  0
   -4.0539   -1.8533    0.1710 C   0  0  0  0  0  0  0  0  0  0  0  0
   -3.6959   -2.4284    1.3865 N   0  0  0  0  0  0  0  0  0  0  0  0
   -4.4440   -3.3782    1.9639 C   0  0  0  0  0  0  0  0  0  0  0  0
   -5.6062   -3.8062    1.3539 C   0  0  0  0  0  0  0  0  0  0  0  0
   -5.9746   -3.2488    0.1616 C   0  0  0  0  0  0  0  0  0  0  0  0
   -5.1850   -2.2483   -0.4511 C   0  0  0  0  0  0  0  0  0  0  0  0
   -5.6741   -1.7135   -1.7225 C   0  0  0  0  0  0  0  0  0  0  0  0
   -4.7797   -1.8174   -2.7771 F   0  0  0  0  0  0  0  0  0  0  0  0
   -6.3223   -0.5194   -1.6828 F   0  0  0  0  0  0  0  0  0  0  0  0
   -6.7067   -2.6116   -2.1741 F   0  0  0  0  0  0  0  0  0  0  0  0
    1.5154    3.9052    0.4639 C   0  0  0  0  0  0  0  0  0  0  0  0
    2.8681    4.1293    0.3879 C   0  0  0  0  0  0  0  0  0  0  0  0
    3.4018    5.3983    0.6664 C   0  0  0  0  0  0  0  0  0  0  0  0
    2.5997    6.4571    1.0197 C   0  0  0  0  0  0  0  0  0  0  0  0
    1.2326    6.2442    1.1013 C   0  0  0  0  0  0  0  0  0  0  0  0
    0.7544    4.9986    0.8254 C   0  0  0  0  0  0  0  0  0  0  0  0
    3.8018   -1.8856   -1.2366 C   0  0  0  0  0  0  0  0  0  0  0  0
    5.0837   -2.2984   -0.9111 C   0  0  0  0  0  0  0  0  0  0  0  0
    5.2983   -1.1612    2.2177 H   0  0  0  0  0  0  0  0  0  0  0  0
    2.9810   -0.3964    1.6203 H   0  0  0  0  0  0  0  0  0  0  0  0
    1.1204   -1.7659   -0.8737 H   0  0  0  0  0  0  0  0  0  0  0  0
   -2.8706    2.4381   -0.9476 H   0  0  0  0  0  0  0  0  0  0  0  0
   -2.8466    1.9351    0.7505 H   0  0  0  0  0  0  0  0  0  0  0  0
   -4.4268    0.6487   -0.2440 H   0  0  0  0  0  0  0  0  0  0  0  0
   -3.5093    0.4661   -1.8129 H   0  0  0  0  0  0  0  0  0  0  0  0
   -2.0224   -2.6895   -0.9566 H   0  0  0  0  0  0  0  0  0  0  0  0
   -1.4507   -1.9515    0.5656 H   0  0  0  0  0  0  0  0  0  0  0  0
   -0.1742   -1.4359   -1.8779 H   0  0  0  0  0  0  0  0  0  0  0  0
   -1.6110   -0.5213   -2.1545 H   0  0  0  0  0  0  0  0  0  0  0  0
   -4.2001   -3.8488    2.9002 H   0  0  0  0  0  0  0  0  0  0  0  0
   -6.2082   -4.5864    1.8383 H   0  0  0  0  0  0  0  0  0  0  0  0
   -6.8816   -3.5931   -0.3391 H   0  0  0  0  0  0  0  0  0  0  0  0
    3.5566    3.3692    0.1044 H   0  0  0  0  0  0  0  0  0  0  0  0
    4.4673    5.5138    0.5728 H   0  0  0  0  0  0  0  0  0  0  0  0
    3.0009    7.4431    1.2334 H   0  0  0  0  0  0  0  0  0  0  0  0
    0.5368    7.0487    1.3860 H   0  0  0  0  0  0  0  0  0  0  0  0
   -0.3167    4.8371    0.8856 H   0  0  0  0  0  0  0  0  0  0  0  0
    3.3360   -2.0674   -2.2146 H   0  0  0  0  0  0  0  0  0  0  0  0
    5.6490   -2.8249   -1.6705 H   0  0  0  0  0  0  0  0  0  0  0  0
  1  2  1  0
  2  3  1  0
  2  4  1  0
  2  5  1  0
  5  6  2  0
  6  7  1  0
  7  8  2  0
  8  9  1  0
  9 10  1  0
 10 11  2  0
 11 12  1  0
 12 13  2  0
 13 14  1  0
 14 15  1  0
 15 16  1  0
 16 17  1  0
 17 18  1  0
 18 19  1  0
 19 20  1  0
 17 21  1  0
 21 22  2  0
 22 23  1  0
 23 24  2  0
 24 25  1  0
 25 26  2  0
 26 27  1  0
 27 28  1  0
 27 29  1  0
 27 30  1  0
 12 31  1  0
 31 32  2  0
 32 33  1  0
 33 34  2  0
 34 35  1  0
 35 36  2  0
  8 37  1  0
 37 38  2  0
 38  5  1  0
 20 10  1  0
 26 21  1  0
 36 31  1  0
 20 14  2  0
  6 39  1  0
  7 40  1  0
  9 41  1  0
 15 42  1  0
 15 43  1  0
 16 44  1  0
 16 45  1  0
 18 46  1  0
 18 47  1  0
 19 48  1  0
 19 49  1  0
 23 50  1  0
 24 51  1  0
 25 52  1  0
 32 53  1  0
 33 54  1  0
 34 55  1  0
 35 56  1  0
 36 57  1  0
 37 58  1  0
 38 59  1  0
M  END
$$$$
[H]c1c([H])c([H])c(C2=NC([H])([H])c3nnc(C([H])([H])[H])n3-c3c([H])c([H])c(Cl)c([H])c32)c(Cl)c1[H]
     RDKit          3D

 35 38  0  0  0  0  0  0  0  0999 V2000
    4.0307   -0.4201   -1.0699 C   0  0  0  0  0  0  0  0  0  0  0  0
    3.3908   -0.6986    0.2265 C   0  0  0  0  0  0  0  0  0  0  0  0
    3.8234   -1.5595    1.2051 N   0  0  0  0  0  0  0  0  0  0  0  0
    2.9220   -1.5902    2.2053 N   0  0  0  0  0  0  0  0  0  0  0  0
    1.9207   -0.7864    1.9220 C   0  0  0  0  0  0  0  0  0  0  0  0
    0.6545   -0.5063    2.7022 C   0  0  0  0  0  0  0  0  0  0  0  0
   -0.5327   -0.7346    1.8842 N   0  0  0  0  0  0  0  0  0  0  0  0
   -0.8154   -0.2721    0.6850 C   0  0  0  0  0  0  0  0  0  0  0  0
   -2.0557   -0.6352    0.0515 C   0  0  0  0  0  0  0  0  0  0  0  0
   -2.4940   -0.4144   -1.2021 C   0  0  0  0  0  0  0  0  0  0  0  0
   -3.7527   -0.7521   -1.6290 C   0  0  0  0  0  0  0  0  0  0  0  0
   -4.6570   -1.3579   -0.7604 C   0  0  0  0  0  0  0  0  0  0  0  0
   -4.2220   -1.5944    0.5302 C   0  0  0  0  0  0  0  0  0  0  0  0
   -2.9726   -1.2503    0.9298 C   0  0  0  0  0  0  0  0  0  0  0  0
   -2.5165   -1.5994    2.6099 Cl  0  0  0  0  0  0  0  0  0  0  0  0
    0.0468    0.6933    0.0256 C   0  0  0  0  0  0  0  0  0  0  0  0
   -0.6131    1.6975   -0.6222 C   0  0  0  0  0  0  0  0  0  0  0  0
    0.0995    2.6784   -1.2750 C   0  0  0  0  0  0  0  0  0  0  0  0
   -0.8060    3.9409   -2.1091 Cl  0  0  0  0  0  0  0  0  0  0  0  0
    1.4992    2.6628   -1.2785 C   0  0  0  0  0  0  0  0  0  0  0  0
    2.2088    1.6488   -0.6171 C   0  0  0  0  0  0  0  0  0  0  0  0
    1.4424    0.7122    0.0016 C   0  0  0  0  0  0  0  0  0  0  0  0
    2.2412   -0.2436    0.6879 N   0  0  0  0  0  0  0  0  0  0  0  0
    4.9499    0.1755   -1.0577 H   0  0  0  0  0  0  0  0  0  0  0  0
    3.3460   -0.2503   -1.9241 H   0  0  0  0  0  0  0  0  0  0  0  0
    4.4545   -1.4385   -1.3788 H   0  0  0  0  0  0  0  0  0  0  0  0
    0.6141   -1.1647    3.5610 H   0  0  0  0  0  0  0  0  0  0  0  0
    0.6815    0.5736    2.9336 H   0  0  0  0  0  0  0  0  0  0  0  0
   -1.8259   -0.0091   -1.9274 H   0  0  0  0  0  0  0  0  0  0  0  0
   -4.1133   -0.5775   -2.6295 H   0  0  0  0  0  0  0  0  0  0  0  0
   -5.6518   -1.6428   -1.0394 H   0  0  0  0  0  0  0  0  0  0  0  0
   -4.9071   -2.0718    1.2437 H   0  0  0  0  0  0  0  0  0  0  0  0
   -1.6955    1.7158   -0.5471 H   0  0  0  0  0  0  0  0  0  0  0  0
    2.0489    3.4174   -1.7815 H   0  0  0  0  0  0  0  0  0  0  0  0
    3.2565    1.6536   -0.5560 H   0  0  0  0  0  0  0  0  0  0  0  0
  1  2  1  0
  2  3  2  0
  3  4  1  0
  4  5  2  0
  5  6  1  0
  6  7  1  0
  7  8  2  0
  8  9  1  0
  9 10  2  0
 10 11  1  0
 11 12  2  0
 12 13  1  0
 13 14  2  0
 14 15  1  0
  8 16  1  0
 16 17  2  0
 17 18  1  0
 18 19  1  0
 18 20  2  0
 20 21  1  0
 21 22  2  0
 22 23  1  0
 23  2  1  0
 23  5  1  0
 14  9  1  0
 22 16  1  0
  1 24  1  0
  1 25  1  0
  1 26  1  0
  6 27  1  0
  6 28  1  0
 10 29  1  0
 11 30  1  0
 12 31  1  0
 13 32  1  0
 17 33  1  0
 20 34  1  0
 21 35  1  0
M  END
$$$$
[H]c1nc([H])c(-c2c([H])c3nc(N([H])C(=O)N([H])C([H])([H])C([H])([H])[H])sc3n(C([H])([H])C3([H])C([H])([H])C3([H])[H])c2=O)c([H])c1[H]
     RDKit          3D

 45 48  0  0  0  0  0  0  0  0999 V2000
    7.8675   -0.5977    1.1364 C   0  0  0  0  0  0  0  0  0  0  0  0
    6.4863   -1.0308    0.7062 C   0  0  0  0  0  0  0  0  0  0  0  0
    5.5014   -0.0337    1.0759 N   0  0  0  0  0  0  0  0  0  0  0  0
    4.1169   -0.1961    0.7854 C   0  0  0  0  0  0  0  0  0  0  0  0
    3.7765   -1.2529    0.1872 O   0  0  0  0  0  0  0  0  0  0  0  0
    3.2066    0.7878    1.1593 N   0  0  0  0  0  0  0  0  0  0  0  0
    1.8101    0.6196    0.8640 C   0  0  0  0  0  0  0  0  0  0  0  0
    1.2015   -0.3790    0.2560 N   0  0  0  0  0  0  0  0  0  0  0  0
   -0.0855   -0.3488    0.0798 C   0  0  0  0  0  0  0  0  0  0  0  0
   -0.9055   -1.3114   -0.5410 C   0  0  0  0  0  0  0  0  0  0  0  0
   -2.2570   -1.1677   -0.6681 C   0  0  0  0  0  0  0  0  0  0  0  0
   -3.0522   -2.2172   -1.3321 C   0  0  0  0  0  0  0  0  0  0  0  0
   -2.8653   -3.5438   -1.0377 C   0  0  0  0  0  0  0  0  0  0  0  0
   -3.6151   -4.5353   -1.6661 C   0  0  0  0  0  0  0  0  0  0  0  0
   -4.5634   -4.1812   -2.6016 C   0  0  0  0  0  0  0  0  0  0  0  0
   -4.7359   -2.8743   -2.8807 N   0  0  0  0  0  0  0  0  0  0  0  0
   -4.0040   -1.8979   -2.2681 C   0  0  0  0  0  0  0  0  0  0  0  0
   -2.8864   -0.0313   -0.1731 C   0  0  0  0  0  0  0  0  0  0  0  0
   -4.1149    0.1257   -0.2746 O   0  0  0  0  0  0  0  0  0  0  0  0
   -2.1176    0.8937    0.4206 N   0  0  0  0  0  0  0  0  0  0  0  0
   -2.7062    2.0980    0.9568 C   0  0  0  0  0  0  0  0  0  0  0  0
   -2.7573    3.2137   -0.0589 C   0  0  0  0  0  0  0  0  0  0  0  0
   -3.3789    4.5155    0.4753 C   0  0  0  0  0  0  0  0  0  0  0  0
   -1.8683    4.4045    0.3058 C   0  0  0  0  0  0  0  0  0  0  0  0
   -0.7637    0.7475    0.5466 C   0  0  0  0  0  0  0  0  0  0  0  0
    0.5130    1.6740    1.2169 S   0  0  0  0  0  0  0  0  0  0  0  0
    8.0930   -0.8848    2.1813 H   0  0  0  0  0  0  0  0  0  0  0  0
    8.0166    0.4971    0.9914 H   0  0  0  0  0  0  0  0  0  0  0  0
    8.6023   -1.1005    0.4616 H   0  0  0  0  0  0  0  0  0  0  0  0
    6.2616   -1.9671    1.2805 H   0  0  0  0  0  0  0  0  0  0  0  0
    6.4343   -1.2155   -0.3816 H   0  0  0  0  0  0  0  0  0  0  0  0
    5.8472    0.8380    1.5789 H   0  0  0  0  0  0  0  0  0  0  0  0
    3.4987    1.6410    1.6448 H   0  0  0  0  0  0  0  0  0  0  0  0
   -0.4651   -2.2239   -0.9481 H   0  0  0  0  0  0  0  0  0  0  0  0
   -2.1384   -3.8762   -0.3152 H   0  0  0  0  0  0  0  0  0  0  0  0
   -3.4866   -5.5843   -1.4517 H   0  0  0  0  0  0  0  0  0  0  0  0
   -5.1631   -4.9495   -3.1065 H   0  0  0  0  0  0  0  0  0  0  0  0
   -4.1692   -0.8766   -2.5167 H   0  0  0  0  0  0  0  0  0  0  0  0
   -2.1583    2.3763    1.8671 H   0  0  0  0  0  0  0  0  0  0  0  0
   -3.7574    1.8669    1.2293 H   0  0  0  0  0  0  0  0  0  0  0  0
   -2.9481    2.9911   -1.1070 H   0  0  0  0  0  0  0  0  0  0  0  0
   -3.7849    4.4974    1.5134 H   0  0  0  0  0  0  0  0  0  0  0  0
   -3.8510    5.1902   -0.2679 H   0  0  0  0  0  0  0  0  0  0  0  0
   -1.3897    4.9509   -0.5301 H   0  0  0  0  0  0  0  0  0  0  0  0
   -1.2443    4.3483    1.2059 H   0  0  0  0  0  0  0  0  0  0  0  0
  1  2  1  0
  2  3  1  0
  3  4  1  0
  4  5  2  0
  4  6  1  0
  6  7  1  0
  7  8  2  0
  8  9  1  0
  9 10  1  0
 10 11  2  0
 11 12  1  0
 12 13  2  0
 13 14  1  0
 14 15  2  0
 15 16  1  0
 16 17  2  0
 11 18  1  0
 18 19  2  0
 18 20  1  0
 20 21  1  0
 21 22  1  0
 22 23  1  0
 23 24  1  0
 20 25  1  0
 25 26  1  0
 26  7  1  0
 25  9  2  0
 17 12  1  0
 24 22  1  0
  1 27  1  0
  1 28  1  0
  1 29  1  0
  2 30  1  0
  2 31  1  0
  3 32  1  0
  6 33  1  0
 10 34  1  0
 13 35  1  0
 14 36  1  0
 15 37  1  0
 17 38  1  0
 21 39  1  0
 21 40  1  0
 22 41  1  0
 23 42  1  0
 23 43  1  0
 24 44  1  0
 24 45  1  0
M  END
$$$$
[H]c1c([H])c([H])c(C([H])([H])[C@@]2([H])C(=O)N3C([H])([H])C([H])([H])C([H])([H])[C@@]3([H])C(=O)N([H])[C@]([H])(C([H])([H])c3c([H])c([H])c([H])c([H])c3[H])C(=O)N([H])[C@@]([H])(C([H])([H])C([H])([H])C([H])([H])N=C(N([H])[H])N([H])[H])C(=O)N([H])[C@@]([H])(C([H])([H])c3nc([H])n([H])c3[H])C(=O)N2[H])c([H])c1[H]
     RDKit          3D

 94 98  0  0  0  0  0  0  0  0999 V2000
    6.0149    3.3077    3.1903 N   0  0  0  0  0  0  0  0  0  0  0  0
    6.2324    2.2398    2.2879 C   0  0  0  0  0  0  0  0  0  0  0  0
    7.5131    2.0270    1.7195 N   0  0  0  0  0  0  0  0  0  0  0  0
    5.2714    1.4657    1.9859 N   0  0  0  0  0  0  0  0  0  0  0  0
    5.4133    0.3678    1.0849 C   0  0  0  0  0  0  0  0  0  0  0  0
    4.0661    0.0708    0.4602 C   0  0  0  0  0  0  0  0  0  0  0  0
    3.5107    1.2145   -0.2944 C   0  0  0  0  0  0  0  0  0  0  0  0
    2.1637    0.9869   -0.9401 C   0  0  2  0  0  0  0  0  0  0  0  0
    2.1390   -0.0854   -1.8990 N   0  0  0  0  0  0  0  0  0  0  0  0
    1.1885   -1.0699   -2.1591 C   0  0  0  0  0  0  0  0  0  0  0  0
    0.6197   -1.0493   -3.3268 O   0  0  0  0  0  0  0  0  0  0  0  0
    0.7145   -2.1763   -1.2706 C   0  0  1  0  0  0  0  0  0  0  0  0
    1.9076   -3.1081   -0.9527 C   0  0  0  0  0  0  0  0  0  0  0  0
    1.5510   -4.2389   -0.0957 C   0  0  0  0  0  0  0  0  0  0  0  0
    1.1573   -5.4746   -0.6172 C   0  0  0  0  0  0  0  0  0  0  0  0
    0.8346   -6.5242    0.2134 C   0  0  0  0  0  0  0  0  0  0  0  0
    0.8895   -6.3884    1.5786 C   0  0  0  0  0  0  0  0  0  0  0  0
    1.2740   -5.1819    2.1204 C   0  0  0  0  0  0  0  0  0  0  0  0
    1.5937   -4.1427    1.2763 C   0  0  0  0  0  0  0  0  0  0  0  0
    0.1214   -1.7175   -0.0494 N   0  0  0  0  0  0  0  0  0  0  0  0
   -1.1143   -1.8750    0.5453 C   0  0  0  0  0  0  0  0  0  0  0  0
   -1.0939   -1.7703    1.8652 O   0  0  0  0  0  0  0  0  0  0  0  0
   -2.4595   -2.1344    0.0603 C   0  0  2  0  0  0  0  0  0  0  0  0
   -2.5395   -3.6286   -0.3061 C   0  0  0  0  0  0  0  0  0  0  0  0
   -2.9715   -3.6528   -1.7259 C   0  0  0  0  0  0  0  0  0  0  0  0
   -2.9288   -2.2468   -2.2498 C   0  0  0  0  0  0  0  0  0  0  0  0
   -2.9991   -1.4199   -1.0235 N   0  0  0  0  0  0  0  0  0  0  0  0
   -3.5634   -0.1323   -0.9776 C   0  0  0  0  0  0  0  0  0  0  0  0
   -4.6752    0.1180   -1.5968 O   0  0  0  0  0  0  0  0  0  0  0  0
   -3.0152    1.0371   -0.2753 C   0  0  2  0  0  0  0  0  0  0  0  0
   -4.0212    1.5559    0.7270 C   0  0  0  0  0  0  0  0  0  0  0  0
   -4.4207    0.6249    1.7814 C   0  0  0  0  0  0  0  0  0  0  0  0
   -3.6856    0.5125    2.9685 C   0  0  0  0  0  0  0  0  0  0  0  0
   -4.0845   -0.3534    3.9642 C   0  0  0  0  0  0  0  0  0  0  0  0
   -5.1998   -1.1254    3.8299 C   0  0  0  0  0  0  0  0  0  0  0  0
   -5.9370   -1.0353    2.6795 C   0  0  0  0  0  0  0  0  0  0  0  0
   -5.5360   -0.1624    1.6753 C   0  0  0  0  0  0  0  0  0  0  0  0
   -2.9209    2.1234   -1.2767 N   0  0  0  0  0  0  0  0  0  0  0  0
   -1.7210    2.6357   -1.7957 C   0  0  0  0  0  0  0  0  0  0  0  0
   -1.6823    3.0678   -2.9923 O   0  0  0  0  0  0  0  0  0  0  0  0
   -0.4351    2.7275   -1.0502 C   0  0  2  0  0  0  0  0  0  0  0  0
   -0.4361    4.0814   -0.3468 C   0  0  0  0  0  0  0  0  0  0  0  0
   -0.5367    5.2153   -1.2771 C   0  0  0  0  0  0  0  0  0  0  0  0
    0.4956    5.9037   -1.8860 C   0  0  0  0  0  0  0  0  0  0  0  0
   -0.0045    6.8875   -2.6781 N   0  0  0  0  0  0  0  0  0  0  0  0
   -1.3362    6.8142   -2.5652 C   0  0  0  0  0  0  0  0  0  0  0  0
   -1.6696    5.8231   -1.7343 N   0  0  0  0  0  0  0  0  0  0  0  0
    0.6479    2.7476   -1.9903 N   0  0  0  0  0  0  0  0  0  0  0  0
    1.9357    2.2519   -1.7415 C   0  0  0  0  0  0  0  0  0  0  0  0
    2.9353    2.8617   -2.1884 O   0  0  0  0  0  0  0  0  0  0  0  0
    6.2080    4.2764    2.8775 H   0  0  0  0  0  0  0  0  0  0  0  0
    5.6656    3.0850    4.1429 H   0  0  0  0  0  0  0  0  0  0  0  0
    7.6932    2.3665    0.7537 H   0  0  0  0  0  0  0  0  0  0  0  0
    8.2395    1.5485    2.2538 H   0  0  0  0  0  0  0  0  0  0  0  0
    5.7637   -0.5716    1.5696 H   0  0  0  0  0  0  0  0  0  0  0  0
    6.1340    0.5665    0.2615 H   0  0  0  0  0  0  0  0  0  0  0  0
    3.3577   -0.3786    1.1846 H   0  0  0  0  0  0  0  0  0  0  0  0
    4.2831   -0.7516   -0.2882 H   0  0  0  0  0  0  0  0  0  0  0  0
    4.2747    1.5366   -1.0462 H   0  0  0  0  0  0  0  0  0  0  0  0
    3.3841    2.0750    0.3929 H   0  0  0  0  0  0  0  0  0  0  0  0
    1.3687    0.9945   -0.2015 H   0  0  0  0  0  0  0  0  0  0  0  0
    3.0166   -0.0828   -2.5199 H   0  0  0  0  0  0  0  0  0  0  0  0
    0.0563   -2.8806   -1.8388 H   0  0  0  0  0  0  0  0  0  0  0  0
    2.1872   -3.5629   -1.9545 H   0  0  0  0  0  0  0  0  0  0  0  0
    2.7876   -2.5600   -0.6239 H   0  0  0  0  0  0  0  0  0  0  0  0
    1.0994   -5.6250   -1.6870 H   0  0  0  0  0  0  0  0  0  0  0  0
    0.5253   -7.4988   -0.1813 H   0  0  0  0  0  0  0  0  0  0  0  0
    0.6301   -7.2282    2.2372 H   0  0  0  0  0  0  0  0  0  0  0  0
    1.3295   -5.0384    3.1867 H   0  0  0  0  0  0  0  0  0  0  0  0
    1.8951   -3.2021    1.7524 H   0  0  0  0  0  0  0  0  0  0  0  0
    0.8237   -1.1282    0.5205 H   0  0  0  0  0  0  0  0  0  0  0  0
   -3.1957   -2.1045    0.9527 H   0  0  0  0  0  0  0  0  0  0  0  0
   -1.5809   -4.1357   -0.0890 H   0  0  0  0  0  0  0  0  0  0  0  0
   -3.3297   -4.1574    0.2859 H   0  0  0  0  0  0  0  0  0  0  0  0
   -3.9495   -4.1336   -1.8811 H   0  0  0  0  0  0  0  0  0  0  0  0
   -2.2258   -4.2523   -2.3079 H   0  0  0  0  0  0  0  0  0  0  0  0
   -3.8014   -2.1053   -2.8936 H   0  0  0  0  0  0  0  0  0  0  0  0
   -2.0278   -2.0305   -2.8451 H   0  0  0  0  0  0  0  0  0  0  0  0
   -2.0324    0.8549    0.1812 H   0  0  0  0  0  0  0  0  0  0  0  0
   -4.9302    1.9723    0.1843 H   0  0  0  0  0  0  0  0  0  0  0  0
   -3.6222    2.4885    1.2379 H   0  0  0  0  0  0  0  0  0  0  0  0
   -2.8063    1.1355    3.0484 H   0  0  0  0  0  0  0  0  0  0  0  0
   -3.5046   -0.4233    4.8689 H   0  0  0  0  0  0  0  0  0  0  0  0
   -5.4790   -1.8022    4.6502 H   0  0  0  0  0  0  0  0  0  0  0  0
   -6.8242   -1.6376    2.5557 H   0  0  0  0  0  0  0  0  0  0  0  0
   -6.1808   -0.1437    0.7910 H   0  0  0  0  0  0  0  0  0  0  0  0
   -3.8343    2.5036   -1.5907 H   0  0  0  0  0  0  0  0  0  0  0  0
   -0.3635    1.9602   -0.2627 H   0  0  0  0  0  0  0  0  0  0  0  0
    0.5138    4.1385    0.2241 H   0  0  0  0  0  0  0  0  0  0  0  0
   -1.2915    4.0841    0.3640 H   0  0  0  0  0  0  0  0  0  0  0  0
    1.5648    5.6935   -1.7527 H   0  0  0  0  0  0  0  0  0  0  0  0
    0.5973    7.5317   -3.2359 H   0  0  0  0  0  0  0  0  0  0  0  0
   -2.0274    7.4590   -3.0697 H   0  0  0  0  0  0  0  0  0  0  0  0
    0.4050    3.1882   -2.9390 H   0  0  0  0  0  0  0  0  0  0  0  0
  1  2  1  0
  2  3  1  0
  2  4  2  3
  4  5  1  0
  5  6  1  0
  6  7  1  0
  7  8  1  0
  8  9  1  0
  9 10  1  0
 10 11  2  0
 10 12  1  0
 12 13  1  0
 13 14  1  0
 14 15  2  0
 15 16  1  0
 16 17  2  0
 17 18  1  0
 18 19  2  0
 12 20  1  0
 20 21  1  0
 21 22  2  0
 21 23  1  0
 23 24  1  0
 24 25  1  0
 25 26  1  0
 26 27  1  0
 27 28  1  0
 28 29  2  0
 28 30  1  0
 30 31  1  0
 31 32  1  0
 32 33  2  0
 33 34  1  0
 34 35  2  0
 35 36  1  0
 36 37  2  0
 30 38  1  0
 38 39  1  0
 39 40  2  0
 39 41  1  0
 41 42  1  0
 42 43  1  0
 43 44  2  0
 44 45  1  0
 45 46  1  0
 46 47  2  0
 41 48  1  0
 48 49  1  0
 49 50  2  0
 49  8  1  0
 19 14  1  0
 27 23  1  0
 37 32  1  0
 47 43  1  0
  1 51  1  0
  1 52  1  0
  3 53  1  0
  3 54  1  0
  5 55  1  0
  5 56  1  0
  6 57  1  0
  6 58  1  0
  7 59  1  0
  7 60  1  0
  8 61  1  1
  9 62  1  0
 12 63  1  6
 13 64  1  0
 13 65  1  0
 15 66  1  0
 16 67  1  0
 17 68  1  0
 18 69  1  0
 19 70  1  0
 20 71  1  0
 23 72  1  1
 24 73  1  0
 24 74  1  0
 25 75  1  0
 25 76  1  0
 26 77  1  0
 26 78  1  0
 30 79  1  1
 31 80  1  0
 31 81  1  0
 33 82  1  0
 34 83  1  0
 35 84  1  0
 36 85  1  0
 37 86  1  0
 38 87  1  0
 41 88  1  1
 42 89  1  0
 42 90  1  0
 44 91  1  0
 45 92  1  0
 46 93  1  0
 48 94  1  0
M  END
$$$$
[H]/C(=C1/C(=O)N([H])c2c([H])c([H])c(Br)c([H])c21)c1c(C([H])([H])[H])c(C(=O)OC([H])([H])C([H])([H])[H])c(C([H])([H])[H])n1[H]
     RDKit          3D

 41 43  0  0  0  0  0  0  0  0999 V2000
    6.3903    0.8722    0.3747 C   0  0  0  0  0  0  0  0  0  0  0  0
    5.4660    1.6716   -0.5114 C   0  0  0  0  0  0  0  0  0  0  0  0
    4.2441    1.0354   -0.7756 O   0  0  0  0  0  0  0  0  0  0  0  0
    3.3614    0.6830    0.2341 C   0  0  0  0  0  0  0  0  0  0  0  0
    3.7141    0.9635    1.4198 O   0  0  0  0  0  0  0  0  0  0  0  0
    2.0720    0.0148   -0.0351 C   0  0  0  0  0  0  0  0  0  0  0  0
    1.8747   -1.3431   -0.0900 C   0  0  0  0  0  0  0  0  0  0  0  0
    2.9446   -2.3668    0.1170 C   0  0  0  0  0  0  0  0  0  0  0  0
    0.5809   -1.5450   -0.3556 N   0  0  0  0  0  0  0  0  0  0  0  0
   -0.0887   -0.4049   -0.4787 C   0  0  0  0  0  0  0  0  0  0  0  0
   -1.4718   -0.0785   -0.7301 C   0  0  0  0  0  0  0  0  0  0  0  0
   -2.5190   -0.4964   -0.0611 C   0  0  0  0  0  0  0  0  0  0  0  0
   -2.4753   -1.3821    1.0880 C   0  0  0  0  0  0  0  0  0  0  0  0
   -1.5088   -1.9045    1.6810 O   0  0  0  0  0  0  0  0  0  0  0  0
   -3.8546   -1.5731    1.4660 N   0  0  0  0  0  0  0  0  0  0  0  0
   -4.7133   -0.8555    0.6140 C   0  0  0  0  0  0  0  0  0  0  0  0
   -6.0968   -0.7358    0.5908 C   0  0  0  0  0  0  0  0  0  0  0  0
   -6.7033    0.0382   -0.3572 C   0  0  0  0  0  0  0  0  0  0  0  0
   -5.9158    0.6919   -1.2821 C   0  0  0  0  0  0  0  0  0  0  0  0
   -6.7364    1.7788   -2.6162 Br  0  0  0  0  0  0  0  0  0  0  0  0
   -4.5396    0.5956   -1.2886 C   0  0  0  0  0  0  0  0  0  0  0  0
   -3.9414   -0.1942   -0.3192 C   0  0  0  0  0  0  0  0  0  0  0  0
    0.8582    0.6091   -0.2756 C   0  0  0  0  0  0  0  0  0  0  0  0
    0.6125    2.0821   -0.3110 C   0  0  0  0  0  0  0  0  0  0  0  0
    5.9046    0.0030    0.8225 H   0  0  0  0  0  0  0  0  0  0  0  0
    7.2838    0.5271   -0.1902 H   0  0  0  0  0  0  0  0  0  0  0  0
    6.8037    1.5251    1.1970 H   0  0  0  0  0  0  0  0  0  0  0  0
    5.9896    1.8431   -1.4862 H   0  0  0  0  0  0  0  0  0  0  0  0
    5.3398    2.6799   -0.0644 H   0  0  0  0  0  0  0  0  0  0  0  0
    3.7406   -1.9322    0.7147 H   0  0  0  0  0  0  0  0  0  0  0  0
    3.3323   -2.7172   -0.8762 H   0  0  0  0  0  0  0  0  0  0  0  0
    2.5623   -3.2698    0.6354 H   0  0  0  0  0  0  0  0  0  0  0  0
    0.1472   -2.5124   -0.4715 H   0  0  0  0  0  0  0  0  0  0  0  0
   -1.6841    0.5883   -1.5652 H   0  0  0  0  0  0  0  0  0  0  0  0
   -4.1713   -2.1694    2.2713 H   0  0  0  0  0  0  0  0  0  0  0  0
   -6.7230   -1.2487    1.3174 H   0  0  0  0  0  0  0  0  0  0  0  0
   -7.7914    0.1305   -0.3728 H   0  0  0  0  0  0  0  0  0  0  0  0
   -3.9043    1.0989   -2.0034 H   0  0  0  0  0  0  0  0  0  0  0  0
    0.4261    2.3731   -1.3648 H   0  0  0  0  0  0  0  0  0  0  0  0
    1.4968    2.6108    0.0381 H   0  0  0  0  0  0  0  0  0  0  0  0
   -0.3069    2.3136    0.2821 H   0  0  0  0  0  0  0  0  0  0  0  0
  1  2  1  0
  2  3  1  0
  3  4  1  0
  4  5  2  0
  4  6  1  0
  6  7  2  0
  7  8  1  0
  7  9  1  0
  9 10  1  0
 10 11  1  0
 11 12  2  0
 12 13  1  0
 13 14  2  0
 13 15  1  0
 15 16  1  0
 16 17  2  0
 17 18  1  0
 18 19  2  0
 19 20  1  0
 19 21  1  0
 21 22  2  0
 10 23  2  0
 23 24  1  0
 23  6  1  0
 22 12  1  0
 22 16  1  0
  1 25  1  0
  1 26  1  0
  1 27  1  0
  2 28  1  0
  2 29  1  0
  8 30  1  0
  8 31  1  0
  8 32  1  0
  9 33  1  0
 11 34  1  0
 15 35  1  0
 17 36  1  0
 18 37  1  0
 21 38  1  0
 24 39  1  0
 24 40  1  0
 24 41  1  0
M  END
$$$$
[H]O[C@]([H])(C([H])([H])[H])[C@@]1([H])C(=O)N([H])[C@@]([H])(C([H])([H])c2c([H])c([H])c([H])c([H])c2[H])C(=O)N([H])[C@@]([H])([C@@]([H])(C([H])([H])[H])C([H])([H])C([H])([H])[H])C(=O)N([H])[C@@]([H])([C@]([H])(C([H])([H])[H])C([H])([H])C([H])([H])[H])C(=O)N1[H]
     RDKit          3D

 72 73  0  0  0  0  0  0  0  0999 V2000
   -0.2431    4.1572    2.3841 C   0  0  0  0  0  0  0  0  0  0  0  0
   -0.6608    3.0762    1.3999 C   0  0  0  0  0  0  0  0  0  0  0  0
    0.3683    2.9321    0.3297 C   0  0  2  0  0  0  0  0  0  0  0  0
    0.5573    4.1954   -0.4324 C   0  0  0  0  0  0  0  0  0  0  0  0
    0.1166    1.7137   -0.5242 C   0  0  2  0  0  0  0  0  0  0  0  0
    1.1428    1.6216   -1.5438 N   0  0  0  0  0  0  0  0  0  0  0  0
    1.7824    0.4614   -1.9862 C   0  0  0  0  0  0  0  0  0  0  0  0
    2.3226    0.4754   -3.1422 O   0  0  0  0  0  0  0  0  0  0  0  0
    1.8965   -0.8151   -1.2237 C   0  0  2  0  0  0  0  0  0  0  0  0
    3.3074   -0.9703   -0.6917 C   0  0  0  0  0  0  0  0  0  0  0  0
    3.7042    0.1141    0.2065 C   0  0  0  0  0  0  0  0  0  0  0  0
    4.3092    1.2381   -0.3151 C   0  0  0  0  0  0  0  0  0  0  0  0
    4.6981    2.2897    0.5228 C   0  0  0  0  0  0  0  0  0  0  0  0
    4.4816    2.2166    1.8827 C   0  0  0  0  0  0  0  0  0  0  0  0
    3.8711    1.0846    2.4164 C   0  0  0  0  0  0  0  0  0  0  0  0
    3.4943    0.0547    1.5647 C   0  0  0  0  0  0  0  0  0  0  0  0
    1.6789   -1.9208   -2.1359 N   0  0  0  0  0  0  0  0  0  0  0  0
    0.9492   -3.0825   -1.7955 C   0  0  0  0  0  0  0  0  0  0  0  0
    1.2461   -4.1671   -2.3523 O   0  0  0  0  0  0  0  0  0  0  0  0
   -0.1582   -3.1062   -0.8124 C   0  0  1  0  0  0  0  0  0  0  0  0
   -1.3818   -2.9662   -1.5755 N   0  0  0  0  0  0  0  0  0  0  0  0
   -1.9385   -1.6960   -1.8536 C   0  0  0  0  0  0  0  0  0  0  0  0
   -2.3992   -1.4360   -2.9959 O   0  0  0  0  0  0  0  0  0  0  0  0
   -2.0090   -0.6211   -0.8336 C   0  0  1  0  0  0  0  0  0  0  0  0
   -1.9996    0.6497   -1.5095 N   0  0  0  0  0  0  0  0  0  0  0  0
   -1.2441    1.7838   -1.1304 C   0  0  0  0  0  0  0  0  0  0  0  0
   -1.8200    2.9059   -1.3475 O   0  0  0  0  0  0  0  0  0  0  0  0
   -3.3020   -0.8506   -0.0744 C   0  0  2  0  0  0  0  0  0  0  0  0
   -4.5119   -0.7906   -0.9488 C   0  0  0  0  0  0  0  0  0  0  0  0
   -3.4674    0.1123    1.0813 C   0  0  0  0  0  0  0  0  0  0  0  0
   -4.7795   -0.2125    1.7530 C   0  0  0  0  0  0  0  0  0  0  0  0
   -0.1935   -4.5062   -0.1939 C   0  0  1  0  0  0  0  0  0  0  0  0
    1.0636   -4.7828    0.5720 C   0  0  0  0  0  0  0  0  0  0  0  0
   -1.3198   -4.6378    0.6409 O   0  0  0  0  0  0  0  0  0  0  0  0
    0.8649    4.1618    2.5367 H   0  0  0  0  0  0  0  0  0  0  0  0
   -0.7688    3.9877    3.3457 H   0  0  0  0  0  0  0  0  0  0  0  0
   -0.5407    5.1705    2.0498 H   0  0  0  0  0  0  0  0  0  0  0  0
   -0.7085    2.1331    1.9849 H   0  0  0  0  0  0  0  0  0  0  0  0
   -1.6702    3.3230    1.0689 H   0  0  0  0  0  0  0  0  0  0  0  0
    1.3436    2.7271    0.8647 H   0  0  0  0  0  0  0  0  0  0  0  0
   -0.0190    5.0193    0.0763 H   0  0  0  0  0  0  0  0  0  0  0  0
    1.6239    4.5678   -0.4020 H   0  0  0  0  0  0  0  0  0  0  0  0
    0.2891    4.1646   -1.4872 H   0  0  0  0  0  0  0  0  0  0  0  0
    0.1417    0.8481    0.1550 H   0  0  0  0  0  0  0  0  0  0  0  0
    1.4283    2.5401   -1.9931 H   0  0  0  0  0  0  0  0  0  0  0  0
    1.2123   -0.7940   -0.3764 H   0  0  0  0  0  0  0  0  0  0  0  0
    3.3359   -1.9765   -0.1939 H   0  0  0  0  0  0  0  0  0  0  0  0
    3.9667   -1.0732   -1.5817 H   0  0  0  0  0  0  0  0  0  0  0  0
    4.5084    1.3600   -1.3710 H   0  0  0  0  0  0  0  0  0  0  0  0
    5.1715    3.1675    0.1096 H   0  0  0  0  0  0  0  0  0  0  0  0
    4.7701    3.0127    2.5591 H   0  0  0  0  0  0  0  0  0  0  0  0
    3.7165    1.0597    3.4861 H   0  0  0  0  0  0  0  0  0  0  0  0
    3.0223   -0.8138    1.9979 H   0  0  0  0  0  0  0  0  0  0  0  0
    2.1023   -1.8143   -3.0907 H   0  0  0  0  0  0  0  0  0  0  0  0
   -0.0529   -2.3360   -0.0191 H   0  0  0  0  0  0  0  0  0  0  0  0
   -1.8943   -3.8201   -1.9486 H   0  0  0  0  0  0  0  0  0  0  0  0
   -1.1905   -0.6669   -0.1018 H   0  0  0  0  0  0  0  0  0  0  0  0
   -2.6183    0.7389   -2.3709 H   0  0  0  0  0  0  0  0  0  0  0  0
   -3.2569   -1.8700    0.3692 H   0  0  0  0  0  0  0  0  0  0  0  0
   -4.9543   -1.8149   -1.1224 H   0  0  0  0  0  0  0  0  0  0  0  0
   -4.3502   -0.3638   -1.9395 H   0  0  0  0  0  0  0  0  0  0  0  0
   -5.3318   -0.2083   -0.4541 H   0  0  0  0  0  0  0  0  0  0  0  0
   -3.5169    1.1368    0.6545 H   0  0  0  0  0  0  0  0  0  0  0  0
   -2.6242    0.0527    1.7963 H   0  0  0  0  0  0  0  0  0  0  0  0
   -4.6672   -0.2472    2.8748 H   0  0  0  0  0  0  0  0  0  0  0  0
   -5.1713   -1.2151    1.4724 H   0  0  0  0  0  0  0  0  0  0  0  0
   -5.5769    0.5118    1.4985 H   0  0  0  0  0  0  0  0  0  0  0  0
   -0.3299   -5.2195   -1.0315 H   0  0  0  0  0  0  0  0  0  0  0  0
    1.3155   -3.8692    1.1633 H   0  0  0  0  0  0  0  0  0  0  0  0
    0.8719   -5.5834    1.3157 H   0  0  0  0  0  0  0  0  0  0  0  0
    1.8545   -5.0662   -0.1400 H   0  0  0  0  0  0  0  0  0  0  0  0
   -1.8584   -5.4516    0.3865 H   0  0  0  0  0  0  0  0  0  0  0  0
  1  2  1  0
  2  3  1  0
  3  4  1  0
  3  5  1  0
  5  6  1  0
  6  7  1  0
  7  8  2  0
  7  9  1  0
  9 10  1  0
 10 11  1  0
 11 12  2  0
 12 13  1  0
 13 14  2  0
 14 15  1  0
 15 16  2  0
  9 17  1  0
 17 18  1  0
 18 19  2  0
 18 20  1  0
 20 21  1  0
 21 22  1  0
 22 23  2  0
 22 24  1  0
 24 25  1  0
 25 26  1  0
 26 27  2  0
 24 28  1  0
 28 29  1  0
 28 30  1  0
 30 31  1  0
 20 32  1  0
 32 33  1  0
 32 34  1  0
 26  5  1  0
 16 11  1  0
  1 35  1  0
  1 36  1  0
  1 37  1  0
  2 38  1  0
  2 39  1  0
  3 40  1  1
  4 41  1  0
  4 42  1  0
  4 43  1  0
  5 44  1  1
  6 45  1  0
  9 46  1  1
 10 47  1  0
 10 48  1  0
 12 49  1  0
 13 50  1  0
 14 51  1  0
 15 52  1  0
 16 53  1  0
 17 54  1  0
 20 55  1  1
 21 56  1  0
 24 57  1  1
 25 58  1  0
 28 59  1  1
 29 60  1  0
 29 61  1  0
 29 62  1  0
 30 63  1  0
 30 64  1  0
 31 65  1  0
 31 66  1  0
 31 67  1  0
 32 68  1  6
 33 69  1  0
 33 70  1  0
 33 71  1  0
 34 72  1  0
M  END
$$$$
[H]OC(=O)c1c([H])c([H])nc(N2C(=O)N(c3c([H])c([H])c(-c4c([H])c([H])c([H])c([H])c4[H])c([H])c3[H])C(=O)C23C([H])([H])C([H])([H])N(C([H])([H])c2nc([H])c([H])c([H])c2C([H])([H])[H])C([H])([H])C3([H])[H])c1[H]
     RDKit          3D

 70 75  0  0  0  0  0  0  0  0999 V2000
   -6.1318   -2.8703    1.3479 C   0  0  0  0  0  0  0  0  0  0  0  0
   -5.7576   -2.3103    0.0170 C   0  0  0  0  0  0  0  0  0  0  0  0
   -6.4760   -2.6931   -1.0975 C   0  0  0  0  0  0  0  0  0  0  0  0
   -6.1639   -2.1956   -2.3419 C   0  0  0  0  0  0  0  0  0  0  0  0
   -5.1219   -1.3116   -2.4421 C   0  0  0  0  0  0  0  0  0  0  0  0
   -4.4591   -0.9726   -1.3424 N   0  0  0  0  0  0  0  0  0  0  0  0
   -4.6917   -1.4021   -0.1070 C   0  0  0  0  0  0  0  0  0  0  0  0
   -3.9525   -0.9834    1.1011 C   0  0  0  0  0  0  0  0  0  0  0  0
   -2.8984   -0.0874    0.7607 N   0  0  0  0  0  0  0  0  0  0  0  0
   -2.3173    0.4897    1.9956 C   0  0  0  0  0  0  0  0  0  0  0  0
   -1.4370    1.6397    1.6038 C   0  0  0  0  0  0  0  0  0  0  0  0
   -0.4396    1.2266    0.5785 C   0  0  0  0  0  0  0  0  0  0  0  0
   -1.0131    0.4133   -0.5665 C   0  0  0  0  0  0  0  0  0  0  0  0
   -1.7888   -0.7312    0.0445 C   0  0  0  0  0  0  0  0  0  0  0  0
    0.2757    2.3661    0.0105 N   0  0  0  0  0  0  0  0  0  0  0  0
    1.5103    1.8256   -0.4515 C   0  0  0  0  0  0  0  0  0  0  0  0
    2.2326    2.3677   -1.3562 O   0  0  0  0  0  0  0  0  0  0  0  0
    1.7735    0.6202    0.2563 N   0  0  0  0  0  0  0  0  0  0  0  0
    0.6841    0.4398    1.1496 C   0  0  0  0  0  0  0  0  0  0  0  0
    0.6737   -0.2558    2.2227 O   0  0  0  0  0  0  0  0  0  0  0  0
    2.8988   -0.2291    0.1073 C   0  0  0  0  0  0  0  0  0  0  0  0
    4.1791    0.3066    0.1020 C   0  0  0  0  0  0  0  0  0  0  0  0
    5.2532   -0.5397   -0.0442 C   0  0  0  0  0  0  0  0  0  0  0  0
    5.1170   -1.9266   -0.1888 C   0  0  0  0  0  0  0  0  0  0  0  0
    3.8389   -2.4341   -0.1805 C   0  0  0  0  0  0  0  0  0  0  0  0
    2.7567   -1.5847   -0.0340 C   0  0  0  0  0  0  0  0  0  0  0  0
    6.2934   -2.7515   -0.3390 C   0  0  0  0  0  0  0  0  0  0  0  0
    6.2364   -3.9039   -1.0780 C   0  0  0  0  0  0  0  0  0  0  0  0
    7.3761   -4.7099   -1.2287 C   0  0  0  0  0  0  0  0  0  0  0  0
    8.5409   -4.3133   -0.6189 C   0  0  0  0  0  0  0  0  0  0  0  0
    8.6264   -3.1590    0.1298 C   0  0  0  0  0  0  0  0  0  0  0  0
    7.4735   -2.3932    0.2516 C   0  0  0  0  0  0  0  0  0  0  0  0
   -0.1248    3.7304   -0.0880 C   0  0  0  0  0  0  0  0  0  0  0  0
   -1.2897    4.1135   -0.7166 C   0  0  0  0  0  0  0  0  0  0  0  0
   -1.6918    5.4394   -0.8203 C   0  0  0  0  0  0  0  0  0  0  0  0
   -0.8619    6.4119   -0.2559 C   0  0  0  0  0  0  0  0  0  0  0  0
    0.3000    6.0106    0.3685 C   0  0  0  0  0  0  0  0  0  0  0  0
    0.6340    4.7285    0.4389 N   0  0  0  0  0  0  0  0  0  0  0  0
   -2.9126    5.8347   -1.4785 C   0  0  0  0  0  0  0  0  0  0  0  0
   -3.7373    4.8826   -2.0348 O   0  0  0  0  0  0  0  0  0  0  0  0
   -3.2295    7.0397   -1.5470 O   0  0  0  0  0  0  0  0  0  0  0  0
   -5.7252   -2.2925    2.1861 H   0  0  0  0  0  0  0  0  0  0  0  0
   -7.2443   -2.8252    1.4357 H   0  0  0  0  0  0  0  0  0  0  0  0
   -5.7932   -3.9097    1.4496 H   0  0  0  0  0  0  0  0  0  0  0  0
   -7.3064   -3.3890   -1.0538 H   0  0  0  0  0  0  0  0  0  0  0  0
   -6.7032   -2.4711   -3.2366 H   0  0  0  0  0  0  0  0  0  0  0  0
   -4.7914   -0.8600   -3.3735 H   0  0  0  0  0  0  0  0  0  0  0  0
   -4.6032   -0.6068    1.9122 H   0  0  0  0  0  0  0  0  0  0  0  0
   -3.4885   -1.9255    1.5254 H   0  0  0  0  0  0  0  0  0  0  0  0
   -1.8427   -0.2883    2.6002 H   0  0  0  0  0  0  0  0  0  0  0  0
   -3.1778    0.8921    2.5607 H   0  0  0  0  0  0  0  0  0  0  0  0
   -2.0699    2.4357    1.2109 H   0  0  0  0  0  0  0  0  0  0  0  0
   -0.8528    1.9628    2.5093 H   0  0  0  0  0  0  0  0  0  0  0  0
   -0.1175    0.0049   -1.1170 H   0  0  0  0  0  0  0  0  0  0  0  0
   -1.6835    0.9776   -1.2123 H   0  0  0  0  0  0  0  0  0  0  0  0
   -1.1175   -1.2222    0.8175 H   0  0  0  0  0  0  0  0  0  0  0  0
   -2.1574   -1.4795   -0.6220 H   0  0  0  0  0  0  0  0  0  0  0  0
    4.3658    1.3767    0.2128 H   0  0  0  0  0  0  0  0  0  0  0  0
    6.2565   -0.1483   -0.0548 H   0  0  0  0  0  0  0  0  0  0  0  0
    3.7125   -3.4969   -0.2919 H   0  0  0  0  0  0  0  0  0  0  0  0
    1.7843   -2.0533   -0.0383 H   0  0  0  0  0  0  0  0  0  0  0  0
    5.3372   -4.2263   -1.5599 H   0  0  0  0  0  0  0  0  0  0  0  0
    7.3137   -5.6096   -1.8116 H   0  0  0  0  0  0  0  0  0  0  0  0
    9.4197   -4.9517   -0.7433 H   0  0  0  0  0  0  0  0  0  0  0  0
    9.5621   -2.8688    0.6028 H   0  0  0  0  0  0  0  0  0  0  0  0
    7.5625   -1.4886    0.8461 H   0  0  0  0  0  0  0  0  0  0  0  0
   -1.9445    3.3649   -1.1618 H   0  0  0  0  0  0  0  0  0  0  0  0
   -1.1325    7.4759   -0.3082 H   0  0  0  0  0  0  0  0  0  0  0  0
    0.9107    6.8130    0.7902 H   0  0  0  0  0  0  0  0  0  0  0  0
   -4.6516    4.6812   -1.5994 H   0  0  0  0  0  0  0  0  0  0  0  0
  1  2  1  0
  2  3  2  0
  3  4  1  0
  4  5  2  0
  5  6  1  0
  6  7  2  0
  7  8  1  0
  8  9  1  0
  9 10  1  0
 10 11  1  0
 11 12  1  0
 12 13  1  0
 13 14  1  0
 12 15  1  0
 15 16  1  0
 16 17  2  0
 16 18  1  0
 18 19  1  0
 19 20  2  0
 18 21  1  0
 21 22  2  0
 22 23  1  0
 23 24  2  0
 24 25  1  0
 25 26  2  0
 24 27  1  0
 27 28  2  0
 28 29  1  0
 29 30  2  0
 30 31  1  0
 31 32  2  0
 15 33  1  0
 33 34  2  0
 34 35  1  0
 35 36  2  0
 36 37  1  0
 37 38  2  0
 35 39  1  0
 39 40  1  0
 39 41  2  0
  7  2  1  0
 14  9  1  0
 26 21  1  0
 32 27  1  0
 38 33  1  0
 19 12  1  0
  1 42  1  0
  1 43  1  0
  1 44  1  0
  3 45  1  0
  4 46  1  0
  5 47  1  0
  8 48  1  0
  8 49  1  0
 10 50  1  0
 10 51  1  0
 11 52  1  0
 11 53  1  0
 13 54  1  0
 13 55  1  0
 14 56  1  0
 14 57  1  0
 22 58  1  0
 23 59  1  0
 25 60  1  0
 26 61  1  0
 28 62  1  0
 29 63  1  0
 30 64  1  0
 31 65  1  0
 32 66  1  0
 34 67  1  0
 36 68  1  0
 37 69  1  0
 40 70  1  0
M  END
$$$$
[H]OC(=O)C([H])(N([H])S(=O)(=O)C(F)(F)C(F)(F)C(F)(F)C(F)(F)F)P(=O)(O[H])O[H]
     RDKit          3D

 30 29  0  0  0  0  0  0  0  0999 V2000
   -4.6477    0.3176    0.8600 O   0  0  0  0  0  0  0  0  0  0  0  0
   -3.7108   -0.2856   -0.4108 P   0  0  0  0  0  0  0  0  0  0  0  0
   -3.8193   -1.9554   -0.4045 O   0  0  0  0  0  0  0  0  0  0  0  0
   -4.1990    0.3364   -1.6807 O   0  0  0  0  0  0  0  0  0  0  0  0
   -1.9830    0.2719   -0.1705 C   0  0  0  0  0  0  0  0  0  0  0  0
   -1.2632    0.2656   -1.3903 N   0  0  0  0  0  0  0  0  0  0  0  0
    0.1539   -0.6474   -1.4850 S   0  0  0  0  0  0  0  0  0  0  0  0
   -0.0747   -2.1133   -1.2041 O   0  0  0  0  0  0  0  0  0  0  0  0
    0.6495   -0.5878   -2.9079 O   0  0  0  0  0  0  0  0  0  0  0  0
    1.3577   -0.0605   -0.3443 C   0  0  0  0  0  0  0  0  0  0  0  0
    1.6002    1.2619   -0.6771 F   0  0  0  0  0  0  0  0  0  0  0  0
    0.8438   -0.1030    0.9202 F   0  0  0  0  0  0  0  0  0  0  0  0
    2.6121   -0.8921   -0.3875 C   0  0  0  0  0  0  0  0  0  0  0  0
    3.1462   -0.8244   -1.6463 F   0  0  0  0  0  0  0  0  0  0  0  0
    2.1168   -2.2205   -0.3089 F   0  0  0  0  0  0  0  0  0  0  0  0
    3.5531   -0.7414    0.7360 C   0  0  0  0  0  0  0  0  0  0  0  0
    4.6372   -1.6013    0.4800 F   0  0  0  0  0  0  0  0  0  0  0  0
    3.0173   -1.2367    1.9259 F   0  0  0  0  0  0  0  0  0  0  0  0
    4.1246    0.5814    1.0418 C   0  0  0  0  0  0  0  0  0  0  0  0
    4.8456    1.1683    0.0287 F   0  0  0  0  0  0  0  0  0  0  0  0
    5.1022    0.3530    2.0473 F   0  0  0  0  0  0  0  0  0  0  0  0
    3.2798    1.4934    1.6344 F   0  0  0  0  0  0  0  0  0  0  0  0
   -2.0846    1.6621    0.3448 C   0  0  0  0  0  0  0  0  0  0  0  0
   -2.7606    1.9249    1.5495 O   0  0  0  0  0  0  0  0  0  0  0  0
   -1.5549    2.5837   -0.3198 O   0  0  0  0  0  0  0  0  0  0  0  0
   -5.2952   -0.3704    1.1737 H   0  0  0  0  0  0  0  0  0  0  0  0
   -3.9648   -2.2933    0.5206 H   0  0  0  0  0  0  0  0  0  0  0  0
   -1.5009   -0.3968    0.5786 H   0  0  0  0  0  0  0  0  0  0  0  0
   -1.1016    1.2351   -1.7195 H   0  0  0  0  0  0  0  0  0  0  0  0
   -3.0794    2.8749    1.6814 H   0  0  0  0  0  0  0  0  0  0  0  0
  1  2  1  0
  2  3  1  0
  2  4  2  0
  2  5  1  0
  5  6  1  0
  6  7  1  0
  7  8  2  0
  7  9  2  0
  7 10  1  0
 10 11  1  0
 10 12  1  0
 10 13  1  0
 13 14  1  0
 13 15  1  0
 13 16  1  0
 16 17  1  0
 16 18  1  0
 16 19  1  0
 19 20  1  0
 19 21  1  0
 19 22  1  0
  5 23  1  0
 23 24  1  0
 23 25  2  0
  1 26  1  0
  3 27  1  0
  5 28  1  0
  6 29  1  0
 24 30  1  0
M  END
$$$$
[H]c1nc(N([H])[H])c(-c2nn(-c3c([H])c(OC([H])([H])[H])c([H])c(OC([H])([H])[H])c3[H])c(=O)c([H])c2[H])nc1-c1c([H])nn(C2([H])C([H])([H])C([H])([H])N([H])C([H])([H])C2([H])[H])c1[H]
     RDKit          3D

 61 65  0  0  0  0  0  0  0  0999 V2000
   -9.1376   -2.4054   -0.2303 C   0  0  0  0  0  0  0  0  0  0  0  0
   -7.8136   -2.2756    0.1882 O   0  0  0  0  0  0  0  0  0  0  0  0
   -7.0943   -1.0911    0.1438 C   0  0  0  0  0  0  0  0  0  0  0  0
   -7.6217    0.0998   -0.3260 C   0  0  0  0  0  0  0  0  0  0  0  0
   -6.8838    1.2649   -0.3594 C   0  0  0  0  0  0  0  0  0  0  0  0
   -7.4418    2.4423   -0.8363 O   0  0  0  0  0  0  0  0  0  0  0  0
   -8.7481    2.5569   -1.3082 C   0  0  0  0  0  0  0  0  0  0  0  0
   -5.5916    1.2171    0.0915 C   0  0  0  0  0  0  0  0  0  0  0  0
   -5.0066    0.0544    0.5739 C   0  0  0  0  0  0  0  0  0  0  0  0
   -5.7854   -1.0838    0.5869 C   0  0  0  0  0  0  0  0  0  0  0  0
   -3.6660   -0.0044    1.0440 N   0  0  0  0  0  0  0  0  0  0  0  0
   -2.6141    0.0674    0.2259 N   0  0  0  0  0  0  0  0  0  0  0  0
   -1.3669    0.0109    0.6812 C   0  0  0  0  0  0  0  0  0  0  0  0
   -1.1728   -0.1249    2.0309 C   0  0  0  0  0  0  0  0  0  0  0  0
   -2.2205   -0.2039    2.9210 C   0  0  0  0  0  0  0  0  0  0  0  0
   -3.4965   -0.1379    2.3731 C   0  0  0  0  0  0  0  0  0  0  0  0
   -4.4922   -0.2050    3.1390 O   0  0  0  0  0  0  0  0  0  0  0  0
   -0.2103    0.0885   -0.2047 C   0  0  0  0  0  0  0  0  0  0  0  0
    1.0446    0.0264    0.3061 N   0  0  0  0  0  0  0  0  0  0  0  0
    2.1191    0.0965   -0.4971 C   0  0  0  0  0  0  0  0  0  0  0  0
    1.8874    0.2327   -1.8465 C   0  0  0  0  0  0  0  0  0  0  0  0
    0.6434    0.2950   -2.3613 N   0  0  0  0  0  0  0  0  0  0  0  0
   -0.4310    0.2243   -1.5517 C   0  0  0  0  0  0  0  0  0  0  0  0
   -1.7686    0.2882   -2.0729 N   0  0  0  0  0  0  0  0  0  0  0  0
    3.4626    0.0289    0.0609 C   0  0  0  0  0  0  0  0  0  0  0  0
    3.8450   -0.1054    1.3780 C   0  0  0  0  0  0  0  0  0  0  0  0
    5.1698   -0.1199    1.4043 N   0  0  0  0  0  0  0  0  0  0  0  0
    5.6915   -0.0055    0.2062 N   0  0  0  0  0  0  0  0  0  0  0  0
    4.6499    0.0889   -0.6492 C   0  0  0  0  0  0  0  0  0  0  0  0
    7.1006    0.0180   -0.1578 C   0  0  0  0  0  0  0  0  0  0  0  0
    7.6829   -1.3279    0.1640 C   0  0  0  0  0  0  0  0  0  0  0  0
    9.1615   -1.3804   -0.1368 C   0  0  0  0  0  0  0  0  0  0  0  0
    9.8049   -0.0959    0.1004 N   0  0  0  0  0  0  0  0  0  0  0  0
    9.1069    0.6504    1.1334 C   0  0  0  0  0  0  0  0  0  0  0  0
    7.7912    1.1440    0.5705 C   0  0  0  0  0  0  0  0  0  0  0  0
   -9.2925   -1.7669   -1.1311 H   0  0  0  0  0  0  0  0  0  0  0  0
   -9.3792   -3.4757   -0.4652 H   0  0  0  0  0  0  0  0  0  0  0  0
   -9.8091   -2.0956    0.5953 H   0  0  0  0  0  0  0  0  0  0  0  0
   -8.6424    0.1103   -0.6754 H   0  0  0  0  0  0  0  0  0  0  0  0
   -9.4388    2.6256   -0.4375 H   0  0  0  0  0  0  0  0  0  0  0  0
   -9.0656    1.7314   -1.9623 H   0  0  0  0  0  0  0  0  0  0  0  0
   -8.8292    3.5427   -1.8405 H   0  0  0  0  0  0  0  0  0  0  0  0
   -4.9945    2.0956    0.0801 H   0  0  0  0  0  0  0  0  0  0  0  0
   -5.3499   -1.9998    0.9583 H   0  0  0  0  0  0  0  0  0  0  0  0
   -0.1720   -0.1767    2.4612 H   0  0  0  0  0  0  0  0  0  0  0  0
   -2.1111   -0.3096    3.9759 H   0  0  0  0  0  0  0  0  0  0  0  0
    2.7354    0.2912   -2.5127 H   0  0  0  0  0  0  0  0  0  0  0  0
   -2.2850   -0.5783   -2.3228 H   0  0  0  0  0  0  0  0  0  0  0  0
   -2.2625    1.1971   -2.2170 H   0  0  0  0  0  0  0  0  0  0  0  0
    3.1640   -0.1802    2.1917 H   0  0  0  0  0  0  0  0  0  0  0  0
    4.7105    0.1966   -1.7382 H   0  0  0  0  0  0  0  0  0  0  0  0
    7.1951    0.2012   -1.2451 H   0  0  0  0  0  0  0  0  0  0  0  0
    7.5457   -1.5150    1.2393 H   0  0  0  0  0  0  0  0  0  0  0  0
    7.1733   -2.0752   -0.4679 H   0  0  0  0  0  0  0  0  0  0  0  0
    9.2790   -1.6948   -1.1955 H   0  0  0  0  0  0  0  0  0  0  0  0
    9.6209   -2.1448    0.4929 H   0  0  0  0  0  0  0  0  0  0  0  0
    9.7673    0.5124   -0.7635 H   0  0  0  0  0  0  0  0  0  0  0  0
    8.9183    0.0549    2.0348 H   0  0  0  0  0  0  0  0  0  0  0  0
    9.7301    1.5574    1.3324 H   0  0  0  0  0  0  0  0  0  0  0  0
    8.0324    1.9916   -0.1139 H   0  0  0  0  0  0  0  0  0  0  0  0
    7.1622    1.5762    1.3741 H   0  0  0  0  0  0  0  0  0  0  0  0
  1  2  1  0
  2  3  1  0
  3  4  2  0
  4  5  1  0
  5  6  1  0
  6  7  1  0
  5  8  2  0
  8  9  1  0
  9 10  2  0
  9 11  1  0
 11 12  1  0
 12 13  2  0
 13 14  1  0
 14 15  2  0
 15 16  1  0
 16 17  2  0
 13 18  1  0
 18 19  2  0
 19 20  1  0
 20 21  2  0
 21 22  1  0
 22 23  2  0
 23 24  1  0
 20 25  1  0
 25 26  1  0
 26 27  2  0
 27 28  1  0
 28 29  1  0
 28 30  1  0
 30 31  1  0
 31 32  1  0
 32 33  1  0
 33 34  1  0
 34 35  1  0
 10  3  1  0
 16 11  1  0
 23 18  1  0
 29 25  2  0
 35 30  1  0
  1 36  1  0
  1 37  1  0
  1 38  1  0
  4 39  1  0
  7 40  1  0
  7 41  1  0
  7 42  1  0
  8 43  1  0
 10 44  1  0
 14 45  1  0
 15 46  1  0
 21 47  1  0
 24 48  1  0
 24 49  1  0
 26 50  1  0
 29 51  1  0
 30 52  1  0
 31 53  1  0
 31 54  1  0
 32 55  1  0
 32 56  1  0
 33 57  1  0
 34 58  1  0
 34 59  1  0
 35 60  1  0
 35 61  1  0
M  END
$$$$
[H]c1sc(C([H])([H])[H])nc1C#Cc1c([H])c([H])c(-c2c([H])c([H])c([H])c([H])c2[H])[n+]([H])c1[H]
     RDKit          3D

 33 35  0  0  0  0  0  0  0  0999 V2000
    7.6529    0.8779   -1.2216 C   0  0  0  0  0  0  0  0  0  0  0  0
    6.5817   -0.0626   -0.7387 C   0  0  0  0  0  0  0  0  0  0  0  0
    5.2770    0.1489   -0.6636 N   0  0  0  0  0  0  0  0  0  0  0  0
    4.4960   -0.7814   -0.2190 C   0  0  0  0  0  0  0  0  0  0  0  0
    5.0703   -1.9682    0.1615 C   0  0  0  0  0  0  0  0  0  0  0  0
    6.7303   -1.6573   -0.1533 S   0  0  0  0  0  0  0  0  0  0  0  0
    3.0438   -0.6021   -0.1143 C   0  0  0  0  0  0  0  0  0  0  0  0
    1.8515   -0.4345   -0.0348 C   0  0  0  0  0  0  0  0  0  0  0  0
    0.4318   -0.2562    0.0592 C   0  0  0  0  0  0  0  0  0  0  0  0
   -0.2309    0.6553   -0.7353 C   0  0  0  0  0  0  0  0  0  0  0  0
   -1.6151    0.8493   -0.6640 C   0  0  0  0  0  0  0  0  0  0  0  0
   -2.3317    0.1073    0.2255 C   0  0  0  0  0  0  0  0  0  0  0  0
   -1.7030   -0.7749    0.9969 N   0  0  0  0  0  0  0  0  0  0  0  0
   -0.3745   -0.9628    0.9302 C   0  0  0  0  0  0  0  0  0  0  0  0
   -3.8072    0.2772    0.3388 C   0  0  0  0  0  0  0  0  0  0  0  0
   -4.5371   -0.4696    1.2359 C   0  0  0  0  0  0  0  0  0  0  0  0
   -5.9121   -0.3011    1.3312 C   0  0  0  0  0  0  0  0  0  0  0  0
   -6.5816    0.6069    0.5414 C   0  0  0  0  0  0  0  0  0  0  0  0
   -5.8266    1.3387   -0.3453 C   0  0  0  0  0  0  0  0  0  0  0  0
   -4.4655    1.1844   -0.4523 C   0  0  0  0  0  0  0  0  0  0  0  0
    8.0955    1.3779   -0.3358 H   0  0  0  0  0  0  0  0  0  0  0  0
    7.2764    1.5724   -1.9694 H   0  0  0  0  0  0  0  0  0  0  0  0
    8.4743    0.2336   -1.6394 H   0  0  0  0  0  0  0  0  0  0  0  0
    4.5685   -2.8674    0.5611 H   0  0  0  0  0  0  0  0  0  0  0  0
    0.3690    1.2330   -1.4360 H   0  0  0  0  0  0  0  0  0  0  0  0
   -2.0386    1.5754   -1.3171 H   0  0  0  0  0  0  0  0  0  0  0  0
   -2.1985   -1.3630    1.6879 H   0  0  0  0  0  0  0  0  0  0  0  0
    0.1235   -1.6911    1.5711 H   0  0  0  0  0  0  0  0  0  0  0  0
   -4.0708   -1.1974    1.8825 H   0  0  0  0  0  0  0  0  0  0  0  0
   -6.4663   -0.9078    2.0524 H   0  0  0  0  0  0  0  0  0  0  0  0
   -7.6596    0.7268    0.6285 H   0  0  0  0  0  0  0  0  0  0  0  0
   -6.3077    2.0613   -0.9838 H   0  0  0  0  0  0  0  0  0  0  0  0
   -3.9159    1.7986   -1.1803 H   0  0  0  0  0  0  0  0  0  0  0  0
  1  2  1  0
  2  3  2  0
  3  4  1  0
  4  5  2  0
  5  6  1  0
  4  7  1  0
  7  8  3  0
  8  9  1  0
  9 10  2  0
 10 11  1  0
 11 12  2  0
 12 13  1  0
 13 14  2  0
 12 15  1  0
 15 16  2  0
 16 17  1  0
 17 18  2  0
 18 19  1  0
 19 20  2  0
  6  2  1  0
 14  9  1  0
 20 15  1  0
  1 21  1  0
  1 22  1  0
  1 23  1  0
  5 24  1  0
 10 25  1  0
 11 26  1  0
 13 27  1  0
 14 28  1  0
 16 29  1  0
 17 30  1  0
 18 31  1  0
 19 32  1  0
 20 33  1  0
M  CHG  1  13   1
M  END
$$$$
[H]c1nc(N([H])c2c([H])c([H])c(N3C([H])([H])C([H])([H])C([H])(N4C([H])([H])C([H])([H])C([H])(C([H])([H])[H])C([H])([H])C4([H])[H])C([H])([H])C3([H])[H])c([H])c2OC([H])([H])[H])nc(N([H])c2c([H])c([H])c([H])c([H])c2S(=O)(=O)C([H])(C([H])([H])[H])C([H])([H])[H])c1Cl
     RDKit          3D

 83 87  0  0  0  0  0  0  0  0999 V2000
   -0.0229    3.8832   -1.1594 C   0  0  0  0  0  0  0  0  0  0  0  0
    0.6931    2.6992   -0.7852 O   0  0  0  0  0  0  0  0  0  0  0  0
   -0.0471    1.6889   -0.1703 C   0  0  0  0  0  0  0  0  0  0  0  0
   -1.3760    1.7910    0.0751 C   0  0  0  0  0  0  0  0  0  0  0  0
   -2.1322    0.8085    0.6818 C   0  0  0  0  0  0  0  0  0  0  0  0
   -1.4561   -0.3368    1.0485 C   0  0  0  0  0  0  0  0  0  0  0  0
   -0.0904   -0.4675    0.8076 C   0  0  0  0  0  0  0  0  0  0  0  0
    0.6615    0.5289    0.1948 C   0  0  0  0  0  0  0  0  0  0  0  0
    2.0158    0.4494   -0.0914 N   0  0  0  0  0  0  0  0  0  0  0  0
    2.9139   -0.5898    0.2072 C   0  0  0  0  0  0  0  0  0  0  0  0
    2.6194   -1.7271    0.8564 N   0  0  0  0  0  0  0  0  0  0  0  0
    3.5483   -2.6687    1.0789 C   0  0  0  0  0  0  0  0  0  0  0  0
    4.8372   -2.5339    0.6652 C   0  0  0  0  0  0  0  0  0  0  0  0
    6.0443   -3.7564    0.9540 Cl  0  0  0  0  0  0  0  0  0  0  0  0
    5.1977   -1.3474   -0.0265 C   0  0  0  0  0  0  0  0  0  0  0  0
    6.5211   -1.1948   -0.4663 N   0  0  0  0  0  0  0  0  0  0  0  0
    7.0640   -0.1127   -1.1591 C   0  0  0  0  0  0  0  0  0  0  0  0
    6.3372    0.9736   -1.6055 C   0  0  0  0  0  0  0  0  0  0  0  0
    6.9009    2.0275   -2.3276 C   0  0  0  0  0  0  0  0  0  0  0  0
    8.2359    1.9855   -2.6090 C   0  0  0  0  0  0  0  0  0  0  0  0
    9.0151    0.9354   -2.1948 C   0  0  0  0  0  0  0  0  0  0  0  0
    8.4364   -0.0918   -1.4829 C   0  0  0  0  0  0  0  0  0  0  0  0
    9.4602   -1.3700   -0.9451 S   0  0  0  0  0  0  0  0  0  0  0  0
    9.0234   -2.7373   -1.4494 O   0  0  0  0  0  0  0  0  0  0  0  0
   10.8372   -1.1675   -1.5726 O   0  0  0  0  0  0  0  0  0  0  0  0
    9.6499   -1.4809    0.8048 C   0  0  0  0  0  0  0  0  0  0  0  0
   10.3775   -0.2718    1.3679 C   0  0  0  0  0  0  0  0  0  0  0  0
   10.5229   -2.7039    1.0782 C   0  0  0  0  0  0  0  0  0  0  0  0
    4.2160   -0.4904   -0.1919 N   0  0  0  0  0  0  0  0  0  0  0  0
   -3.5267    0.9472    0.9022 N   0  0  0  0  0  0  0  0  0  0  0  0
   -4.1916   -0.0231    1.7397 C   0  0  0  0  0  0  0  0  0  0  0  0
   -5.6405    0.2775    1.9718 C   0  0  0  0  0  0  0  0  0  0  0  0
   -6.3466    0.9085    0.8183 C   0  0  0  0  0  0  0  0  0  0  0  0
   -5.4897    1.3435   -0.3202 C   0  0  0  0  0  0  0  0  0  0  0  0
   -4.2466    2.0172    0.2915 C   0  0  0  0  0  0  0  0  0  0  0  0
   -7.3719    0.0576    0.3049 N   0  0  0  0  0  0  0  0  0  0  0  0
   -8.4150   -0.1847    1.2618 C   0  0  0  0  0  0  0  0  0  0  0  0
   -9.0187   -1.5243    0.8639 C   0  0  0  0  0  0  0  0  0  0  0  0
   -9.5982   -1.4013   -0.4961 C   0  0  0  0  0  0  0  0  0  0  0  0
  -11.1265   -1.3386   -0.3314 C   0  0  0  0  0  0  0  0  0  0  0  0
   -9.1349   -0.3112   -1.3625 C   0  0  0  0  0  0  0  0  0  0  0  0
   -7.9416    0.4607   -0.9327 C   0  0  0  0  0  0  0  0  0  0  0  0
   -0.8282    3.6294   -1.8924 H   0  0  0  0  0  0  0  0  0  0  0  0
    0.6339    4.6204   -1.6600 H   0  0  0  0  0  0  0  0  0  0  0  0
   -0.5513    4.3076   -0.2755 H   0  0  0  0  0  0  0  0  0  0  0  0
   -1.8381    2.7341   -0.2409 H   0  0  0  0  0  0  0  0  0  0  0  0
   -1.9896   -1.1392    1.5256 H   0  0  0  0  0  0  0  0  0  0  0  0
    0.3469   -1.3892    1.1242 H   0  0  0  0  0  0  0  0  0  0  0  0
    2.4490    1.2805   -0.6069 H   0  0  0  0  0  0  0  0  0  0  0  0
    3.2356   -3.5715    1.6150 H   0  0  0  0  0  0  0  0  0  0  0  0
    7.1646   -1.9946   -0.2570 H   0  0  0  0  0  0  0  0  0  0  0  0
    5.2727    1.0891   -1.4313 H   0  0  0  0  0  0  0  0  0  0  0  0
    6.2874    2.8749   -2.6650 H   0  0  0  0  0  0  0  0  0  0  0  0
    8.6807    2.8037   -3.1724 H   0  0  0  0  0  0  0  0  0  0  0  0
   10.0826    0.9401   -2.4401 H   0  0  0  0  0  0  0  0  0  0  0  0
    8.7257   -1.6339    1.3387 H   0  0  0  0  0  0  0  0  0  0  0  0
   11.0326    0.1875    0.6051 H   0  0  0  0  0  0  0  0  0  0  0  0
    9.6314    0.4256    1.7968 H   0  0  0  0  0  0  0  0  0  0  0  0
   11.0366   -0.6365    2.1805 H   0  0  0  0  0  0  0  0  0  0  0  0
   10.6749   -2.8822    2.1586 H   0  0  0  0  0  0  0  0  0  0  0  0
   11.5457   -2.5049    0.6486 H   0  0  0  0  0  0  0  0  0  0  0  0
   10.0715   -3.6160    0.6363 H   0  0  0  0  0  0  0  0  0  0  0  0
   -3.6454   -0.0392    2.7054 H   0  0  0  0  0  0  0  0  0  0  0  0
   -4.0763   -1.0378    1.3038 H   0  0  0  0  0  0  0  0  0  0  0  0
   -6.1592   -0.6737    2.2263 H   0  0  0  0  0  0  0  0  0  0  0  0
   -5.7560    0.9357    2.8574 H   0  0  0  0  0  0  0  0  0  0  0  0
   -6.8830    1.8466    1.1635 H   0  0  0  0  0  0  0  0  0  0  0  0
   -5.9994    2.1409   -0.8876 H   0  0  0  0  0  0  0  0  0  0  0  0
   -5.2199    0.4675   -0.9273 H   0  0  0  0  0  0  0  0  0  0  0  0
   -4.6507    2.7121    1.0601 H   0  0  0  0  0  0  0  0  0  0  0  0
   -3.7672    2.5222   -0.5403 H   0  0  0  0  0  0  0  0  0  0  0  0
   -9.2517    0.5548    1.0873 H   0  0  0  0  0  0  0  0  0  0  0  0
   -8.1162   -0.1901    2.3077 H   0  0  0  0  0  0  0  0  0  0  0  0
   -8.1664   -2.2398    0.8425 H   0  0  0  0  0  0  0  0  0  0  0  0
   -9.7748   -1.8631    1.6021 H   0  0  0  0  0  0  0  0  0  0  0  0
   -9.4440   -2.4056   -0.9996 H   0  0  0  0  0  0  0  0  0  0  0  0
  -11.3763   -0.3308    0.0561 H   0  0  0  0  0  0  0  0  0  0  0  0
  -11.4960   -2.0929    0.3597 H   0  0  0  0  0  0  0  0  0  0  0  0
  -11.6298   -1.4428   -1.3113 H   0  0  0  0  0  0  0  0  0  0  0  0
   -8.9370   -0.7214   -2.3958 H   0  0  0  0  0  0  0  0  0  0  0  0
   -9.9816    0.4110   -1.5352 H   0  0  0  0  0  0  0  0  0  0  0  0
   -8.1657    1.5595   -0.8568 H   0  0  0  0  0  0  0  0  0  0  0  0
   -7.1243    0.4107   -1.7077 H   0  0  0  0  0  0  0  0  0  0  0  0
  1  2  1  0
  2  3  1  0
  3  4  2  0
  4  5  1  0
  5  6  2  0
  6  7  1  0
  7  8  2  0
  8  9  1  0
  9 10  1  0
 10 11  2  0
 11 12  1  0
 12 13  2  0
 13 14  1  0
 13 15  1  0
 15 16  1  0
 16 17  1  0
 17 18  2  0
 18 19  1  0
 19 20  2  0
 20 21  1  0
 21 22  2  0
 22 23  1  0
 23 24  2  0
 23 25  2  0
 23 26  1  0
 26 27  1  0
 26 28  1  0
 15 29  2  0
  5 30  1  0
 30 31  1  0
 31 32  1  0
 32 33  1  0
 33 34  1  0
 34 35  1  0
 33 36  1  0
 36 37  1  0
 37 38  1  0
 38 39  1  0
 39 40  1  0
 39 41  1  0
 41 42  1  0
  8  3  1  0
 29 10  1  0
 35 30  1  0
 42 36  1  0
 22 17  1  0
  1 43  1  0
  1 44  1  0
  1 45  1  0
  4 46  1  0
  6 47  1  0
  7 48  1  0
  9 49  1  0
 12 50  1  0
 16 51  1  0
 18 52  1  0
 19 53  1  0
 20 54  1  0
 21 55  1  0
 26 56  1  0
 27 57  1  0
 27 58  1  0
 27 59  1  0
 28 60  1  0
 28 61  1  0
 28 62  1  0
 31 63  1  0
 31 64  1  0
 32 65  1  0
 32 66  1  0
 33 67  1  0
 34 68  1  0
 34 69  1  0
 35 70  1  0
 35 71  1  0
 37 72  1  0
 37 73  1  0
 38 74  1  0
 38 75  1  0
 39 76  1  0
 40 77  1  0
 40 78  1  0
 40 79  1  0
 41 80  1  0
 41 81  1  0
 42 82  1  0
 42 83  1  0
M  END
$$$$
[H]c1nc2c([H])c(N([H])c3nn([H])c(C([H])([H])[H])c3[H])nc(N([H])[C@@]3([H])C([H])([H])[C@@]4([H])N(S(=O)(=O)C([H])([H])C#N)[C@]([H])(C([H])([H])C([H])([H])C4([H])[H])C3([H])[H])c2c([H])c1[H]
     RDKit          3D

 59 63  0  0  0  0  0  0  0  0999 V2000
    8.1893   -1.2446   -0.9737 C   0  0  0  0  0  0  0  0  0  0  0  0
    6.7607   -1.5861   -0.7147 C   0  0  0  0  0  0  0  0  0  0  0  0
    5.7457   -0.6770   -0.3751 C   0  0  0  0  0  0  0  0  0  0  0  0
    4.5749   -1.3179   -0.2117 C   0  0  0  0  0  0  0  0  0  0  0  0
    3.2654   -0.9674    0.1137 N   0  0  0  0  0  0  0  0  0  0  0  0
    2.6707    0.2773    0.4007 C   0  0  0  0  0  0  0  0  0  0  0  0
    3.2690    1.4973    0.4220 C   0  0  0  0  0  0  0  0  0  0  0  0
    2.5806    2.6494    0.7204 C   0  0  0  0  0  0  0  0  0  0  0  0
    3.2499    3.8306    0.7211 N   0  0  0  0  0  0  0  0  0  0  0  0
    2.6346    4.9691    1.0016 C   0  0  0  0  0  0  0  0  0  0  0  0
    1.2952    4.9274    1.2937 C   0  0  0  0  0  0  0  0  0  0  0  0
    0.5798    3.7307    1.3013 C   0  0  0  0  0  0  0  0  0  0  0  0
    1.2180    2.5668    1.0126 C   0  0  0  0  0  0  0  0  0  0  0  0
    0.5929    1.3409    0.9964 C   0  0  0  0  0  0  0  0  0  0  0  0
   -0.7903    1.2510    1.2949 N   0  0  0  0  0  0  0  0  0  0  0  0
   -1.4807   -0.0502    1.2809 C   0  0  1  0  0  0  0  0  0  0  0  0
   -2.8864    0.1738    1.6571 C   0  0  0  0  0  0  0  0  0  0  0  0
   -3.8857   -0.7675    1.0607 C   0  0  2  0  0  0  0  0  0  0  0  0
   -3.6195   -2.1648    1.6396 C   0  0  0  0  0  0  0  0  0  0  0  0
   -3.4910   -3.1834    0.5273 C   0  0  0  0  0  0  0  0  0  0  0  0
   -2.3877   -2.8206   -0.4528 C   0  0  0  0  0  0  0  0  0  0  0  0
   -2.4015   -1.3098   -0.7099 C   0  0  2  0  0  0  0  0  0  0  0  0
   -1.2382   -0.6677   -0.0533 C   0  0  0  0  0  0  0  0  0  0  0  0
   -3.6848   -0.8403   -0.3298 N   0  0  0  0  0  0  0  0  0  0  0  0
   -4.3637    0.3698   -1.2810 S   0  0  0  0  0  0  0  0  0  0  0  0
   -3.9351    1.7466   -0.9165 O   0  0  0  0  0  0  0  0  0  0  0  0
   -4.1061    0.1501   -2.7433 O   0  0  0  0  0  0  0  0  0  0  0  0
   -6.1489    0.3119   -1.0675 C   0  0  0  0  0  0  0  0  0  0  0  0
   -6.8151    1.3234   -1.8535 C   0  0  0  0  0  0  0  0  0  0  0  0
   -7.3559    2.1220   -2.4924 N   0  0  0  0  0  0  0  0  0  0  0  0
    1.3311    0.2853    0.6992 N   0  0  0  0  0  0  0  0  0  0  0  0
    4.8774   -2.6463   -0.4556 N   0  0  0  0  0  0  0  0  0  0  0  0
    6.1450   -2.7698   -0.7430 N   0  0  0  0  0  0  0  0  0  0  0  0
    8.7716   -2.1989   -0.9364 H   0  0  0  0  0  0  0  0  0  0  0  0
    8.5761   -0.5048   -0.2334 H   0  0  0  0  0  0  0  0  0  0  0  0
    8.2836   -0.8373   -2.0184 H   0  0  0  0  0  0  0  0  0  0  0  0
    5.9402    0.3640   -0.2751 H   0  0  0  0  0  0  0  0  0  0  0  0
    2.5351   -1.7862    0.1649 H   0  0  0  0  0  0  0  0  0  0  0  0
    4.3332    1.5790    0.1944 H   0  0  0  0  0  0  0  0  0  0  0  0
    3.1662    5.9278    1.0048 H   0  0  0  0  0  0  0  0  0  0  0  0
    0.7513    5.8349    1.5291 H   0  0  0  0  0  0  0  0  0  0  0  0
   -0.4715    3.7252    1.5339 H   0  0  0  0  0  0  0  0  0  0  0  0
   -1.3596    2.0704    1.5288 H   0  0  0  0  0  0  0  0  0  0  0  0
   -0.9850   -0.6282    2.1143 H   0  0  0  0  0  0  0  0  0  0  0  0
   -3.0205    0.1379    2.7743 H   0  0  0  0  0  0  0  0  0  0  0  0
   -3.2167    1.2157    1.3814 H   0  0  0  0  0  0  0  0  0  0  0  0
   -4.8934   -0.4167    1.3208 H   0  0  0  0  0  0  0  0  0  0  0  0
   -4.4861   -2.4356    2.2450 H   0  0  0  0  0  0  0  0  0  0  0  0
   -2.6929   -2.1690    2.2337 H   0  0  0  0  0  0  0  0  0  0  0  0
   -4.4516   -3.1119   -0.0587 H   0  0  0  0  0  0  0  0  0  0  0  0
   -3.3402   -4.1649    0.9678 H   0  0  0  0  0  0  0  0  0  0  0  0
   -1.3809   -3.1265   -0.0702 H   0  0  0  0  0  0  0  0  0  0  0  0
   -2.5719   -3.4003   -1.3643 H   0  0  0  0  0  0  0  0  0  0  0  0
   -2.3283   -1.2110   -1.8335 H   0  0  0  0  0  0  0  0  0  0  0  0
   -0.7771    0.0368   -0.7779 H   0  0  0  0  0  0  0  0  0  0  0  0
   -0.4583   -1.4736    0.0930 H   0  0  0  0  0  0  0  0  0  0  0  0
   -6.5330   -0.7169   -1.3317 H   0  0  0  0  0  0  0  0  0  0  0  0
   -6.4251    0.4583   -0.0032 H   0  0  0  0  0  0  0  0  0  0  0  0
    6.6454   -3.6780   -0.9724 H   0  0  0  0  0  0  0  0  0  0  0  0
  1  2  1  0
  2  3  2  0
  3  4  1  0
  4  5  1  0
  5  6  1  0
  6  7  2  0
  7  8  1  0
  8  9  2  0
  9 10  1  0
 10 11  2  0
 11 12  1  0
 12 13  2  0
 13 14  1  0
 14 15  1  0
 15 16  1  0
 16 17  1  0
 17 18  1  0
 18 19  1  0
 19 20  1  0
 20 21  1  0
 21 22  1  0
 22 23  1  0
 22 24  1  0
 24 25  1  0
 25 26  2  0
 25 27  2  0
 25 28  1  0
 28 29  1  0
 29 30  3  0
 14 31  2  0
  4 32  2  0
 32 33  1  0
 33  2  1  0
 31  6  1  0
 13  8  1  0
 23 16  1  0
 24 18  1  0
  1 34  1  0
  1 35  1  0
  1 36  1  0
  3 37  1  0
  5 38  1  0
  7 39  1  0
 10 40  1  0
 11 41  1  0
 12 42  1  0
 15 43  1  0
 16 44  1  1
 17 45  1  0
 17 46  1  0
 18 47  1  6
 19 48  1  0
 19 49  1  0
 20 50  1  0
 20 51  1  0
 21 52  1  0
 21 53  1  0
 22 54  1  6
 23 55  1  0
 23 56  1  0
 28 57  1  0
 28 58  1  0
 33 59  1  0
M  END
$$$$
[H]OC(=O)C([H])([H])[C@]1(C([H])([H])[H])C(=O)N([C@@]([H])(C([H])([H])C([H])([H])[H])C([H])([H])S(=O)(=O)C([H])(C([H])([H])[H])C([H])([H])[H])[C@]([H])(c2c([H])c([H])c(Cl)c([H])c2[H])[C@@]([H])(c2c([H])c([H])c([H])c(Cl)c2[H])C1([H])[H]
     RDKit          3D

 69 71  0  0  0  0  0  0  0  0999 V2000
    2.5599   -1.1428    2.5134 C   0  0  0  0  0  0  0  0  0  0  0  0
    1.4964   -1.3172    1.4931 C   0  0  0  0  0  0  0  0  0  0  0  0
    1.4060   -0.4305    0.3376 C   0  0  1  0  0  0  0  0  0  0  0  0
    2.4297   -0.3750   -0.6801 C   0  0  0  0  0  0  0  0  0  0  0  0
    4.0528    0.0745   -0.7048 S   0  0  0  0  0  0  0  0  0  0  0  0
    4.2115    1.6200   -0.4403 O   0  0  0  0  0  0  0  0  0  0  0  0
    4.5256    0.0514   -2.2037 O   0  0  0  0  0  0  0  0  0  0  0  0
    5.3275   -0.6518    0.1813 C   0  0  0  0  0  0  0  0  0  0  0  0
    5.8019   -0.0578    1.4394 C   0  0  0  0  0  0  0  0  0  0  0  0
    6.6457   -0.5050   -0.7549 C   0  0  0  0  0  0  0  0  0  0  0  0
    0.0459   -0.5497   -0.2432 N   0  0  0  0  0  0  0  0  0  0  0  0
   -0.9390    0.4906   -0.2448 C   0  0  1  0  0  0  0  0  0  0  0  0
   -2.3353   -0.0426    0.0133 C   0  0  2  0  0  0  0  0  0  0  0  0
   -2.7213   -1.1658   -0.9210 C   0  0  0  0  0  0  0  0  0  0  0  0
   -1.5974   -1.8545   -1.6005 C   0  0  2  0  0  0  0  0  0  0  0  0
   -1.4265   -1.3912   -3.0426 C   0  0  0  0  0  0  0  0  0  0  0  0
   -1.9346   -3.3318   -1.6893 C   0  0  0  0  0  0  0  0  0  0  0  0
   -3.1421   -3.6431   -2.4464 C   0  0  0  0  0  0  0  0  0  0  0  0
   -3.5979   -4.9488   -2.5724 O   0  0  0  0  0  0  0  0  0  0  0  0
   -3.8099   -2.7463   -3.0073 O   0  0  0  0  0  0  0  0  0  0  0  0
   -0.2889   -1.7590   -0.8865 C   0  0  0  0  0  0  0  0  0  0  0  0
    0.4531   -2.7970   -0.9067 O   0  0  0  0  0  0  0  0  0  0  0  0
   -3.3638    0.9841   -0.0032 C   0  0  0  0  0  0  0  0  0  0  0  0
   -4.0352    1.3259    1.1445 C   0  0  0  0  0  0  0  0  0  0  0  0
   -5.0272    2.3186    1.1227 C   0  0  0  0  0  0  0  0  0  0  0  0
   -5.3384    2.9617   -0.0494 C   0  0  0  0  0  0  0  0  0  0  0  0
   -4.6614    2.6237   -1.2294 C   0  0  0  0  0  0  0  0  0  0  0  0
   -5.0377    3.4267   -2.7281 Cl  0  0  0  0  0  0  0  0  0  0  0  0
   -3.6895    1.6374   -1.1593 C   0  0  0  0  0  0  0  0  0  0  0  0
   -0.7373    1.5989    0.7040 C   0  0  0  0  0  0  0  0  0  0  0  0
   -0.5388    2.9095    0.2603 C   0  0  0  0  0  0  0  0  0  0  0  0
   -0.3830    3.9903    1.0713 C   0  0  0  0  0  0  0  0  0  0  0  0
   -0.4239    3.7809    2.4320 C   0  0  0  0  0  0  0  0  0  0  0  0
   -0.2223    5.1586    3.4808 Cl  0  0  0  0  0  0  0  0  0  0  0  0
   -0.6207    2.4857    2.9286 C   0  0  0  0  0  0  0  0  0  0  0  0
   -0.7738    1.4215    2.0706 C   0  0  0  0  0  0  0  0  0  0  0  0
    2.2062   -1.4634    3.5479 H   0  0  0  0  0  0  0  0  0  0  0  0
    3.3907   -1.8362    2.2962 H   0  0  0  0  0  0  0  0  0  0  0  0
    2.9438   -0.1036    2.5754 H   0  0  0  0  0  0  0  0  0  0  0  0
    1.5453   -2.4363    1.1430 H   0  0  0  0  0  0  0  0  0  0  0  0
    0.5246   -1.3886    2.0884 H   0  0  0  0  0  0  0  0  0  0  0  0
    1.3362    0.6548    0.8167 H   0  0  0  0  0  0  0  0  0  0  0  0
    2.3800   -1.3968   -1.3058 H   0  0  0  0  0  0  0  0  0  0  0  0
    1.9185    0.2907   -1.5356 H   0  0  0  0  0  0  0  0  0  0  0  0
    5.3330   -1.7731    0.2060 H   0  0  0  0  0  0  0  0  0  0  0  0
    5.0335    0.7007    1.7887 H   0  0  0  0  0  0  0  0  0  0  0  0
    6.7167    0.5166    1.3109 H   0  0  0  0  0  0  0  0  0  0  0  0
    5.8917   -0.8322    2.2439 H   0  0  0  0  0  0  0  0  0  0  0  0
    7.4212   -1.1079   -0.3118 H   0  0  0  0  0  0  0  0  0  0  0  0
    6.8475    0.5756   -0.7357 H   0  0  0  0  0  0  0  0  0  0  0  0
    6.3461   -0.7966   -1.7702 H   0  0  0  0  0  0  0  0  0  0  0  0
   -0.8739    0.9362   -1.2858 H   0  0  0  0  0  0  0  0  0  0  0  0
   -2.2970   -0.4889    1.0287 H   0  0  0  0  0  0  0  0  0  0  0  0
   -3.4043   -0.7762   -1.7119 H   0  0  0  0  0  0  0  0  0  0  0  0
   -3.3262   -1.9174   -0.3663 H   0  0  0  0  0  0  0  0  0  0  0  0
   -2.2655   -0.7186   -3.2974 H   0  0  0  0  0  0  0  0  0  0  0  0
   -1.4436   -2.2321   -3.7625 H   0  0  0  0  0  0  0  0  0  0  0  0
   -0.4558   -0.8694   -3.1713 H   0  0  0  0  0  0  0  0  0  0  0  0
   -1.0333   -3.8812   -2.0318 H   0  0  0  0  0  0  0  0  0  0  0  0
   -2.0754   -3.6796   -0.6212 H   0  0  0  0  0  0  0  0  0  0  0  0
   -3.9695   -5.4892   -1.7940 H   0  0  0  0  0  0  0  0  0  0  0  0
   -3.8599    0.8748    2.1106 H   0  0  0  0  0  0  0  0  0  0  0  0
   -5.5683    2.6076    2.0087 H   0  0  0  0  0  0  0  0  0  0  0  0
   -6.0899    3.7283   -0.1386 H   0  0  0  0  0  0  0  0  0  0  0  0
   -3.1515    1.3587   -2.0519 H   0  0  0  0  0  0  0  0  0  0  0  0
   -0.5091    3.0532   -0.8225 H   0  0  0  0  0  0  0  0  0  0  0  0
   -0.2337    4.9737    0.6601 H   0  0  0  0  0  0  0  0  0  0  0  0
   -0.6492    2.3590    4.0005 H   0  0  0  0  0  0  0  0  0  0  0  0
   -0.9387    0.4071    2.4759 H   0  0  0  0  0  0  0  0  0  0  0  0
  1  2  1  0
  2  3  1  0
  3  4  1  0
  4  5  1  0
  5  6  2  0
  5  7  2  0
  5  8  1  0
  8  9  1  0
  8 10  1  0
  3 11  1  0
 11 12  1  0
 12 13  1  0
 13 14  1  0
 14 15  1  0
 15 16  1  6
 15 17  1  0
 17 18  1  0
 18 19  1  0
 18 20  2  0
 15 21  1  0
 21 22  2  0
 13 23  1  0
 23 24  2  0
 24 25  1  0
 25 26  2  0
 26 27  1  0
 27 28  1  0
 27 29  2  0
 12 30  1  0
 30 31  2  0
 31 32  1  0
 32 33  2  0
 33 34  1  0
 33 35  1  0
 35 36  2  0
 21 11  1  0
 29 23  1  0
 36 30  1  0
  1 37  1  0
  1 38  1  0
  1 39  1  0
  2 40  1  0
  2 41  1  0
  3 42  1  1
  4 43  1  0
  4 44  1  0
  8 45  1  0
  9 46  1  0
  9 47  1  0
  9 48  1  0
 10 49  1  0
 10 50  1  0
 10 51  1  0
 12 52  1  6
 13 53  1  1
 14 54  1  0
 14 55  1  0
 16 56  1  0
 16 57  1  0
 16 58  1  0
 17 59  1  0
 17 60  1  0
 19 61  1  0
 24 62  1  0
 25 63  1  0
 26 64  1  0
 29 65  1  0
 31 66  1  0
 32 67  1  0
 35 68  1  0
 36 69  1  0
M  END
$$$$
[H]c1nc(-c2c([H])c([H])c([H])c([H])c2[H])n(C([H])([H])C(=O)N([H])C([H])(C(=O)c2nc3c([H])c(C(=O)OC([H])([H])[H])c([H])c([H])c3o2)C([H])([H])c2c([H])c([H])c([H])c([H])c2[H])c(=O)c1N([H])[H]
     RDKit          3D

 66 70  0  0  0  0  0  0  0  0999 V2000
    9.9487    3.0747   -2.8222 C   0  0  0  0  0  0  0  0  0  0  0  0
    8.6476    2.6924   -2.3698 O   0  0  0  0  0  0  0  0  0  0  0  0
    8.4194    1.3950   -1.9953 C   0  0  0  0  0  0  0  0  0  0  0  0
    9.3629    0.5703   -2.0592 O   0  0  0  0  0  0  0  0  0  0  0  0
    7.1020    0.9319   -1.5187 C   0  0  0  0  0  0  0  0  0  0  0  0
    6.8992   -0.3784   -1.1436 C   0  0  0  0  0  0  0  0  0  0  0  0
    5.6413   -0.7890   -0.6923 C   0  0  0  0  0  0  0  0  0  0  0  0
    4.5881    0.1008   -0.6141 C   0  0  0  0  0  0  0  0  0  0  0  0
    3.3363    0.0225   -0.2452 O   0  0  0  0  0  0  0  0  0  0  0  0
    2.7163    1.1568   -0.3481 C   0  0  0  0  0  0  0  0  0  0  0  0
    3.6265    2.0403   -0.8174 N   0  0  0  0  0  0  0  0  0  0  0  0
    4.7869    1.3982   -0.9851 C   0  0  0  0  0  0  0  0  0  0  0  0
    6.0311    1.7941   -1.4290 C   0  0  0  0  0  0  0  0  0  0  0  0
    1.3338    1.4587   -0.0359 C   0  0  0  0  0  0  0  0  0  0  0  0
    0.9305    2.6599   -0.2306 O   0  0  0  0  0  0  0  0  0  0  0  0
    0.3664    0.4341    0.4977 C   0  0  0  0  0  0  0  0  0  0  0  0
    0.9050   -0.0190    1.8289 C   0  0  0  0  0  0  0  0  0  0  0  0
    0.0819   -1.0301    2.5066 C   0  0  0  0  0  0  0  0  0  0  0  0
    0.2767   -2.3684    2.2665 C   0  0  0  0  0  0  0  0  0  0  0  0
   -0.4778   -3.3494    2.8998 C   0  0  0  0  0  0  0  0  0  0  0  0
   -1.4568   -2.9806    3.8000 C   0  0  0  0  0  0  0  0  0  0  0  0
   -1.6541   -1.6453    4.0419 C   0  0  0  0  0  0  0  0  0  0  0  0
   -0.8973   -0.6757    3.4061 C   0  0  0  0  0  0  0  0  0  0  0  0
   -0.9124    1.0752    0.6044 N   0  0  0  0  0  0  0  0  0  0  0  0
   -1.9792    0.6465   -0.2123 C   0  0  0  0  0  0  0  0  0  0  0  0
   -1.8967   -0.2802   -1.0422 O   0  0  0  0  0  0  0  0  0  0  0  0
   -3.3072    1.3709   -0.0630 C   0  0  0  0  0  0  0  0  0  0  0  0
   -4.2263    0.8159   -1.0010 N   0  0  0  0  0  0  0  0  0  0  0  0
   -5.0597   -0.1875   -0.7921 C   0  0  0  0  0  0  0  0  0  0  0  0
   -5.8179   -0.7013   -1.8270 N   0  0  0  0  0  0  0  0  0  0  0  0
   -5.7720   -0.2432   -3.0566 C   0  0  0  0  0  0  0  0  0  0  0  0
   -4.9185    0.8038   -3.3109 C   0  0  0  0  0  0  0  0  0  0  0  0
   -4.8163    1.3523   -4.6061 N   0  0  0  0  0  0  0  0  0  0  0  0
   -4.1672    1.3117   -2.2921 C   0  0  0  0  0  0  0  0  0  0  0  0
   -3.3785    2.2653   -2.4879 O   0  0  0  0  0  0  0  0  0  0  0  0
   -5.2574   -0.8920    0.4435 C   0  0  0  0  0  0  0  0  0  0  0  0
   -5.1895   -0.3928    1.6933 C   0  0  0  0  0  0  0  0  0  0  0  0
   -5.3131   -1.2147    2.8347 C   0  0  0  0  0  0  0  0  0  0  0  0
   -5.5101   -2.5557    2.7066 C   0  0  0  0  0  0  0  0  0  0  0  0
   -5.5856   -3.0909    1.4588 C   0  0  0  0  0  0  0  0  0  0  0  0
   -5.4633   -2.2856    0.3620 C   0  0  0  0  0  0  0  0  0  0  0  0
    9.9771    4.0748   -3.2542 H   0  0  0  0  0  0  0  0  0  0  0  0
   10.6822    3.0615   -1.9756 H   0  0  0  0  0  0  0  0  0  0  0  0
   10.3394    2.3762   -3.5837 H   0  0  0  0  0  0  0  0  0  0  0  0
    7.7268   -1.0755   -1.2058 H   0  0  0  0  0  0  0  0  0  0  0  0
    5.4968   -1.8022   -0.4059 H   0  0  0  0  0  0  0  0  0  0  0  0
    6.2169    2.8350   -1.7335 H   0  0  0  0  0  0  0  0  0  0  0  0
    0.3859   -0.4039   -0.2240 H   0  0  0  0  0  0  0  0  0  0  0  0
    0.9997    0.8454    2.5401 H   0  0  0  0  0  0  0  0  0  0  0  0
    1.9447   -0.3678    1.6789 H   0  0  0  0  0  0  0  0  0  0  0  0
    1.0302   -2.7167    1.5714 H   0  0  0  0  0  0  0  0  0  0  0  0
   -0.3319   -4.4068    2.7182 H   0  0  0  0  0  0  0  0  0  0  0  0
   -2.0463   -3.7704    4.2933 H   0  0  0  0  0  0  0  0  0  0  0  0
   -2.4059   -1.3479    4.7338 H   0  0  0  0  0  0  0  0  0  0  0  0
   -1.0751    0.3893    3.6179 H   0  0  0  0  0  0  0  0  0  0  0  0
   -1.0459    1.8433    1.2754 H   0  0  0  0  0  0  0  0  0  0  0  0
   -3.5290    1.4591    0.9687 H   0  0  0  0  0  0  0  0  0  0  0  0
   -3.1032    2.4505   -0.4259 H   0  0  0  0  0  0  0  0  0  0  0  0
   -6.3718   -0.6528   -3.8614 H   0  0  0  0  0  0  0  0  0  0  0  0
   -3.8977    1.5303   -5.0707 H   0  0  0  0  0  0  0  0  0  0  0  0
   -5.7197    1.5818   -5.0989 H   0  0  0  0  0  0  0  0  0  0  0  0
   -5.0966    0.6465    1.9221 H   0  0  0  0  0  0  0  0  0  0  0  0
   -5.2503   -0.7798    3.8207 H   0  0  0  0  0  0  0  0  0  0  0  0
   -5.6017   -3.1686    3.5986 H   0  0  0  0  0  0  0  0  0  0  0  0
   -5.7426   -4.1553    1.3628 H   0  0  0  0  0  0  0  0  0  0  0  0
   -5.5256   -2.7374   -0.6155 H   0  0  0  0  0  0  0  0  0  0  0  0
  1  2  1  0
  2  3  1  0
  3  4  2  0
  3  5  1  0
  5  6  2  0
  6  7  1  0
  7  8  2  0
  8  9  1  0
  9 10  1  0
 10 11  2  0
 11 12  1  0
 12 13  2  0
 10 14  1  0
 14 15  2  0
 14 16  1  0
 16 17  1  0
 17 18  1  0
 18 19  2  0
 19 20  1  0
 20 21  2  0
 21 22  1  0
 22 23  2  0
 16 24  1  0
 24 25  1  0
 25 26  2  0
 25 27  1  0
 27 28  1  0
 28 29  1  0
 29 30  2  0
 30 31  1  0
 31 32  2  0
 32 33  1  0
 32 34  1  0
 34 35  2  0
 29 36  1  0
 36 37  2  0
 37 38  1  0
 38 39  2  0
 39 40  1  0
 40 41  2  0
 13  5  1  0
 23 18  1  0
 34 28  1  0
 41 36  1  0
 12  8  1  0
  1 42  1  0
  1 43  1  0
  1 44  1  0
  6 45  1  0
  7 46  1  0
 13 47  1  0
 16 48  1  0
 17 49  1  0
 17 50  1  0
 19 51  1  0
 20 52  1  0
 21 53  1  0
 22 54  1  0
 23 55  1  0
 24 56  1  0
 27 57  1  0
 27 58  1  0
 31 59  1  0
 33 60  1  0
 33 61  1  0
 37 62  1  0
 38 63  1  0
 39 64  1  0
 40 65  1  0
 41 66  1  0
M  END
$$$$
[H]O[C@@]1([H])C([H])([H])C([H])([H])[C@@]2([H])[C@@]3([H])C([H])([H])C([H])([H])[C@]([H])(OC(=O)C([H])([H])[H])[C@]4(C([H])([H])[H])C(=O)O[C@]([H])(C([H])([H])[H])[C@@]4(C([H])([H])[H])C([H])([H])C([H])([H])[C@]3([H])[C@@]2(C([H])([H])[H])C([H])([H])C1([H])[H]
     RDKit          3D

 67 70  0  0  0  0  0  0  0  0999 V2000
   -2.9456   -3.5208   -1.1297 C   0  0  0  0  0  0  0  0  0  0  0  0
   -3.2064   -2.0290   -1.1765 C   0  0  1  0  0  0  0  0  0  0  0  0
   -4.3303   -1.7135   -0.3785 O   0  0  0  0  0  0  0  0  0  0  0  0
   -4.0241   -0.6838    0.5338 C   0  0  0  0  0  0  0  0  0  0  0  0
   -4.6219   -0.5553    1.5921 O   0  0  0  0  0  0  0  0  0  0  0  0
   -2.9304   -0.0056   -0.1894 C   0  0  1  0  0  0  0  0  0  0  0  0
   -3.5552    0.3117   -1.5491 C   0  0  0  0  0  0  0  0  0  0  0  0
   -2.3524    1.1970    0.2933 C   0  0  2  0  0  0  0  0  0  0  0  0
   -1.2768    1.2187    1.3401 C   0  0  0  0  0  0  0  0  0  0  0  0
    0.1251    1.3959    0.7873 C   0  0  0  0  0  0  0  0  0  0  0  0
    1.0064    0.2316    0.9124 C   0  0  2  0  0  0  0  0  0  0  0  0
    2.4894    0.4588    1.0838 C   0  0  2  0  0  0  0  0  0  0  0  0
    3.0796    1.6226    0.3654 C   0  0  0  0  0  0  0  0  0  0  0  0
    4.4940    1.8491    0.8946 C   0  0  0  0  0  0  0  0  0  0  0  0
    5.4853    0.9240    0.2533 C   0  0  2  0  0  0  0  0  0  0  0  0
    5.7483    1.2129   -1.0695 O   0  0  0  0  0  0  0  0  0  0  0  0
    5.0421   -0.5078    0.3999 C   0  0  0  0  0  0  0  0  0  0  0  0
    3.8941   -0.8217   -0.5505 C   0  0  0  0  0  0  0  0  0  0  0  0
    2.6405   -0.8279    0.2508 C   0  0  1  0  0  0  0  0  0  0  0  0
    2.5119   -2.0919    1.0415 C   0  0  0  0  0  0  0  0  0  0  0  0
    1.3788   -0.3975   -0.4394 C   0  0  1  0  0  0  0  0  0  0  0  0
    0.3930   -1.5290   -0.6391 C   0  0  0  0  0  0  0  0  0  0  0  0
   -0.8921   -1.0745   -1.2495 C   0  0  0  0  0  0  0  0  0  0  0  0
   -2.1011   -1.2420   -0.4237 C   0  0  2  0  0  0  0  0  0  0  0  0
   -1.9199   -2.1349    0.7707 C   0  0  0  0  0  0  0  0  0  0  0  0
   -3.3861    2.1504    0.5736 O   0  0  0  0  0  0  0  0  0  0  0  0
   -3.5631    3.3651    0.0440 C   0  0  0  0  0  0  0  0  0  0  0  0
   -4.6903    4.2290    0.4314 C   0  0  0  0  0  0  0  0  0  0  0  0
   -2.7470    3.7667   -0.7984 O   0  0  0  0  0  0  0  0  0  0  0  0
   -3.1826   -3.9904   -0.1778 H   0  0  0  0  0  0  0  0  0  0  0  0
   -3.6338   -3.9656   -1.8908 H   0  0  0  0  0  0  0  0  0  0  0  0
   -1.9260   -3.7047   -1.5116 H   0  0  0  0  0  0  0  0  0  0  0  0
   -3.2560   -1.7715   -2.2204 H   0  0  0  0  0  0  0  0  0  0  0  0
   -2.7783    0.2011   -2.3607 H   0  0  0  0  0  0  0  0  0  0  0  0
   -3.8998    1.3585   -1.6410 H   0  0  0  0  0  0  0  0  0  0  0  0
   -4.4719   -0.2735   -1.7670 H   0  0  0  0  0  0  0  0  0  0  0  0
   -1.8326    1.7092   -0.5479 H   0  0  0  0  0  0  0  0  0  0  0  0
   -1.4480    2.2110    1.8828 H   0  0  0  0  0  0  0  0  0  0  0  0
   -1.3662    0.4927    2.1423 H   0  0  0  0  0  0  0  0  0  0  0  0
   -0.0229    1.7472   -0.2766 H   0  0  0  0  0  0  0  0  0  0  0  0
    0.6743    2.2687    1.2523 H   0  0  0  0  0  0  0  0  0  0  0  0
    0.6675   -0.4824    1.6647 H   0  0  0  0  0  0  0  0  0  0  0  0
    2.8505    0.3663    2.1137 H   0  0  0  0  0  0  0  0  0  0  0  0
    3.0786    1.5133   -0.7503 H   0  0  0  0  0  0  0  0  0  0  0  0
    2.5522    2.5928    0.5478 H   0  0  0  0  0  0  0  0  0  0  0  0
    4.8157    2.8890    0.6817 H   0  0  0  0  0  0  0  0  0  0  0  0
    4.4810    1.6715    1.9752 H   0  0  0  0  0  0  0  0  0  0  0  0
    6.4390    1.0260    0.8103 H   0  0  0  0  0  0  0  0  0  0  0  0
    6.1832    0.3916   -1.4555 H   0  0  0  0  0  0  0  0  0  0  0  0
    4.7301   -0.6368    1.4672 H   0  0  0  0  0  0  0  0  0  0  0  0
    5.9005   -1.1809    0.2483 H   0  0  0  0  0  0  0  0  0  0  0  0
    3.8929   -0.2181   -1.4496 H   0  0  0  0  0  0  0  0  0  0  0  0
    4.0794   -1.8834   -0.8811 H   0  0  0  0  0  0  0  0  0  0  0  0
    1.9837   -2.0036    1.9873 H   0  0  0  0  0  0  0  0  0  0  0  0
    3.5592   -2.4269    1.3019 H   0  0  0  0  0  0  0  0  0  0  0  0
    2.1210   -2.9071    0.3853 H   0  0  0  0  0  0  0  0  0  0  0  0
    1.4624    0.3193   -1.2439 H   0  0  0  0  0  0  0  0  0  0  0  0
    0.2898   -2.0090    0.3505 H   0  0  0  0  0  0  0  0  0  0  0  0
    0.9372   -2.2888   -1.2739 H   0  0  0  0  0  0  0  0  0  0  0  0
   -1.0342   -1.6965   -2.1851 H   0  0  0  0  0  0  0  0  0  0  0  0
   -0.8498   -0.0255   -1.6536 H   0  0  0  0  0  0  0  0  0  0  0  0
   -1.3388   -1.7714    1.5934 H   0  0  0  0  0  0  0  0  0  0  0  0
   -1.4411   -3.0795    0.3655 H   0  0  0  0  0  0  0  0  0  0  0  0
   -2.8904   -2.4958    1.1731 H   0  0  0  0  0  0  0  0  0  0  0  0
   -5.0298    4.9117   -0.3571 H   0  0  0  0  0  0  0  0  0  0  0  0
   -5.5437    3.5382    0.6926 H   0  0  0  0  0  0  0  0  0  0  0  0
   -4.4979    4.8049    1.3648 H   0  0  0  0  0  0  0  0  0  0  0  0
  1  2  1  0
  2  3  1  0
  3  4  1  0
  4  5  2  0
  4  6  1  0
  6  7  1  6
  6  8  1  0
  8  9  1  0
  9 10  1  0
 10 11  1  0
 11 12  1  0
 12 13  1  0
 13 14  1  0
 14 15  1  0
 15 16  1  0
 15 17  1  0
 17 18  1  0
 18 19  1  0
 19 20  1  1
 19 21  1  0
 21 22  1  0
 22 23  1  0
 23 24  1  0
 24 25  1  1
  8 26  1  0
 26 27  1  0
 27 28  1  0
 27 29  2  0
 24  2  1  0
 24  6  1  0
 21 11  1  0
 19 12  1  0
  1 30  1  0
  1 31  1  0
  1 32  1  0
  2 33  1  6
  7 34  1  0
  7 35  1  0
  7 36  1  0
  8 37  1  6
  9 38  1  0
  9 39  1  0
 10 40  1  0
 10 41  1  0
 11 42  1  1
 12 43  1  1
 13 44  1  0
 13 45  1  0
 14 46  1  0
 14 47  1  0
 15 48  1  1
 16 49  1  0
 17 50  1  0
 17 51  1  0
 18 52  1  0
 18 53  1  0
 20 54  1  0
 20 55  1  0
 20 56  1  0
 21 57  1  6
 22 58  1  0
 22 59  1  0
 23 60  1  0
 23 61  1  0
 25 62  1  0
 25 63  1  0
 25 64  1  0
 28 65  1  0
 28 66  1  0
 28 67  1  0
M  END
$$$$
[H]OC([H])([H])[C@@]1(O[H])C([H])([H])[C@@]2([H])O[C@]1(C([H])([H])[H])n1c3c([H])c([H])c([H])c([H])c3c3c4c(c5c6c([H])c([H])c([H])c([H])c6n2c5c31)C(=O)N([H])C4=O
     RDKit          3D

 53 60  0  0  0  0  0  0  0  0999 V2000
   -3.2536   -0.3191   -1.3077 C   0  0  0  0  0  0  0  0  0  0  0  0
   -1.9922   -0.5302   -0.4891 C   0  0  2  0  0  0  0  0  0  0  0  0
   -1.2261   -1.3263   -1.3816 O   0  0  0  0  0  0  0  0  0  0  0  0
   -0.4552   -2.1851   -0.6434 C   0  0  2  0  0  0  0  0  0  0  0  0
   -1.1492   -2.4550    0.6346 C   0  0  0  0  0  0  0  0  0  0  0  0
   -2.1837   -1.3578    0.7255 C   0  0  1  0  0  0  0  0  0  0  0  0
   -1.9546   -0.6647    1.9131 O   0  0  0  0  0  0  0  0  0  0  0  0
   -3.5376   -2.0044    0.8351 C   0  0  0  0  0  0  0  0  0  0  0  0
   -3.5035   -2.8809    1.9429 O   0  0  0  0  0  0  0  0  0  0  0  0
    0.8706   -1.5405   -0.4677 N   0  0  0  0  0  0  0  0  0  0  0  0
    2.0538   -2.1365   -0.4814 C   0  0  0  0  0  0  0  0  0  0  0  0
    2.3914   -3.4572   -0.6338 C   0  0  0  0  0  0  0  0  0  0  0  0
    3.7055   -3.8346   -0.6121 C   0  0  0  0  0  0  0  0  0  0  0  0
    4.7011   -2.9015   -0.4384 C   0  0  0  0  0  0  0  0  0  0  0  0
    4.3734   -1.5527   -0.2818 C   0  0  0  0  0  0  0  0  0  0  0  0
    3.0666   -1.1853   -0.3044 C   0  0  0  0  0  0  0  0  0  0  0  0
    2.4186    0.0421   -0.1795 C   0  0  0  0  0  0  0  0  0  0  0  0
    2.8449    1.3517    0.0302 C   0  0  0  0  0  0  0  0  0  0  0  0
    4.1760    1.9185    0.1715 C   0  0  0  0  0  0  0  0  0  0  0  0
    5.3248    1.4136    0.1523 O   0  0  0  0  0  0  0  0  0  0  0  0
    3.9953    3.3287    0.3634 N   0  0  0  0  0  0  0  0  0  0  0  0
    2.5851    3.6428    0.3433 C   0  0  0  0  0  0  0  0  0  0  0  0
    2.1845    4.8257    0.4922 O   0  0  0  0  0  0  0  0  0  0  0  0
    1.9021    2.3866    0.1339 C   0  0  0  0  0  0  0  0  0  0  0  0
    0.5577    2.0739    0.0234 C   0  0  0  0  0  0  0  0  0  0  0  0
   -0.6212    2.8071    0.1087 C   0  0  0  0  0  0  0  0  0  0  0  0
   -0.8522    4.1373    0.3325 C   0  0  0  0  0  0  0  0  0  0  0  0
   -2.1789    4.5830    0.3956 C   0  0  0  0  0  0  0  0  0  0  0  0
   -3.2184    3.7235    0.2404 C   0  0  0  0  0  0  0  0  0  0  0  0
   -2.9946    2.3720    0.0133 C   0  0  0  0  0  0  0  0  0  0  0  0
   -1.6901    1.9279   -0.0519 C   0  0  0  0  0  0  0  0  0  0  0  0
   -1.2201    0.6787   -0.2397 N   0  0  0  0  0  0  0  0  0  0  0  0
    0.1527    0.7758   -0.1867 C   0  0  0  0  0  0  0  0  0  0  0  0
    1.0789   -0.2375   -0.2874 C   0  0  0  0  0  0  0  0  0  0  0  0
   -3.1208    0.5742   -1.9395 H   0  0  0  0  0  0  0  0  0  0  0  0
   -3.3563   -1.1553   -2.0912 H   0  0  0  0  0  0  0  0  0  0  0  0
   -4.1831   -0.4024   -0.7531 H   0  0  0  0  0  0  0  0  0  0  0  0
   -0.2576   -3.0975   -1.2082 H   0  0  0  0  0  0  0  0  0  0  0  0
   -1.6411   -3.4681    0.5339 H   0  0  0  0  0  0  0  0  0  0  0  0
   -0.4690   -2.4559    1.5142 H   0  0  0  0  0  0  0  0  0  0  0  0
   -1.6587   -1.3562    2.5850 H   0  0  0  0  0  0  0  0  0  0  0  0
   -4.2695   -1.2222    1.1100 H   0  0  0  0  0  0  0  0  0  0  0  0
   -3.8200   -2.6146   -0.0282 H   0  0  0  0  0  0  0  0  0  0  0  0
   -4.2951   -3.4856    1.8211 H   0  0  0  0  0  0  0  0  0  0  0  0
    1.5744   -4.1807   -0.7709 H   0  0  0  0  0  0  0  0  0  0  0  0
    3.9673   -4.8787   -0.7329 H   0  0  0  0  0  0  0  0  0  0  0  0
    5.7406   -3.1581   -0.4159 H   0  0  0  0  0  0  0  0  0  0  0  0
    5.1602   -0.8441   -0.1477 H   0  0  0  0  0  0  0  0  0  0  0  0
    4.7619    4.0384    0.4993 H   0  0  0  0  0  0  0  0  0  0  0  0
   -0.0814    4.8576    0.4628 H   0  0  0  0  0  0  0  0  0  0  0  0
   -2.3091    5.6540    0.5756 H   0  0  0  0  0  0  0  0  0  0  0  0
   -4.2457    4.0593    0.2881 H   0  0  0  0  0  0  0  0  0  0  0  0
   -3.8490    1.7165   -0.0715 H   0  0  0  0  0  0  0  0  0  0  0  0
  2  1  1  6
  2  3  1  0
  3  4  1  0
  4  5  1  0
  5  6  1  0
  6  7  1  1
  6  8  1  0
  8  9  1  0
  4 10  1  0
 10 11  1  0
 11 12  2  0
 12 13  1  0
 13 14  2  0
 14 15  1  0
 15 16  2  0
 16 17  1  0
 17 18  2  0
 18 19  1  0
 19 20  2  0
 19 21  1  0
 21 22  1  0
 22 23  2  0
 22 24  1  0
 24 25  2  0
 25 26  1  0
 26 27  2  0
 27 28  1  0
 28 29  2  0
 29 30  1  0
 30 31  2  0
 31 32  1  0
 32 33  1  0
 33 34  2  0
  6  2  1  0
 34 10  1  0
 32  2  1  0
 16 11  1  0
 34 17  1  0
 24 18  1  0
 33 25  1  0
 31 26  1  0
  1 35  1  0
  1 36  1  0
  1 37  1  0
  4 38  1  6
  5 39  1  0
  5 40  1  0
  7 41  1  0
  8 42  1  0
  8 43  1  0
  9 44  1  0
 12 45  1  0
 13 46  1  0
 14 47  1  0
 15 48  1  0
 21 49  1  0
 27 50  1  0
 28 51  1  0
 29 52  1  0
 30 53  1  0
M  END
$$$$
[H]c1c([H])c([H])c2c([H])c(C(=O)N([H])[C@@]3([H])C([H])([H])N4C([H])([H])C([H])([H])C3([H])C([H])([H])C4([H])[H])oc2c1[H]
     RDKit          3D

 38 41  0  0  0  0  0  0  0  0999 V2000
    0.5525    1.9730   -1.1475 O   0  0  0  0  0  0  0  0  0  0  0  0
    0.7031    0.9246   -0.4630 C   0  0  0  0  0  0  0  0  0  0  0  0
   -0.4135    0.1508   -0.0762 N   0  0  0  0  0  0  0  0  0  0  0  0
   -1.7651    0.5232   -0.4445 C   0  0  1  0  0  0  0  0  0  0  0  0
   -2.3393   -0.6024   -1.2943 C   0  0  0  0  0  0  0  0  0  0  0  0
   -3.7729   -0.7462   -0.9944 N   0  0  0  0  0  0  0  0  0  0  0  0
   -3.9630   -1.3279    0.3188 C   0  0  0  0  0  0  0  0  0  0  0  0
   -2.9642   -0.7056    1.2818 C   0  0  0  0  0  0  0  0  0  0  0  0
   -2.6643    0.6812    0.7457 C   0  0  0  0  0  0  0  0  0  0  0  0
   -3.9700    1.2945    0.2297 C   0  0  0  0  0  0  0  0  0  0  0  0
   -4.3233    0.5952   -1.0667 C   0  0  0  0  0  0  0  0  0  0  0  0
    2.0366    0.4860   -0.0541 C   0  0  0  0  0  0  0  0  0  0  0  0
    3.2156    1.1500   -0.3648 C   0  0  0  0  0  0  0  0  0  0  0  0
    4.2427    0.4426    0.1863 C   0  0  0  0  0  0  0  0  0  0  0  0
    5.6053    0.6122    0.2093 C   0  0  0  0  0  0  0  0  0  0  0  0
    6.4209   -0.2928    0.8663 C   0  0  0  0  0  0  0  0  0  0  0  0
    5.8691   -1.3688    1.5007 C   0  0  0  0  0  0  0  0  0  0  0  0
    4.5086   -1.5376    1.4774 C   0  0  0  0  0  0  0  0  0  0  0  0
    3.6724   -0.6336    0.8191 C   0  0  0  0  0  0  0  0  0  0  0  0
    2.3772   -0.5575    0.6456 O   0  0  0  0  0  0  0  0  0  0  0  0
   -0.2761   -0.7014    0.4816 H   0  0  0  0  0  0  0  0  0  0  0  0
   -1.7174    1.4715   -1.0465 H   0  0  0  0  0  0  0  0  0  0  0  0
   -2.3129   -0.2688   -2.3695 H   0  0  0  0  0  0  0  0  0  0  0  0
   -1.7952   -1.5401   -1.1907 H   0  0  0  0  0  0  0  0  0  0  0  0
   -4.9896   -1.1201    0.6459 H   0  0  0  0  0  0  0  0  0  0  0  0
   -3.7831   -2.4098    0.2779 H   0  0  0  0  0  0  0  0  0  0  0  0
   -2.0323   -1.2743    1.3455 H   0  0  0  0  0  0  0  0  0  0  0  0
   -3.3914   -0.6456    2.3097 H   0  0  0  0  0  0  0  0  0  0  0  0
   -2.2853    1.3683    1.5114 H   0  0  0  0  0  0  0  0  0  0  0  0
   -4.7740    1.1070    0.9553 H   0  0  0  0  0  0  0  0  0  0  0  0
   -3.7640    2.3581    0.0367 H   0  0  0  0  0  0  0  0  0  0  0  0
   -5.4265    0.5740   -1.2273 H   0  0  0  0  0  0  0  0  0  0  0  0
   -3.8859    1.1113   -1.9468 H   0  0  0  0  0  0  0  0  0  0  0  0
    3.2976    2.0686   -0.9439 H   0  0  0  0  0  0  0  0  0  0  0  0
    6.0509    1.4508   -0.2836 H   0  0  0  0  0  0  0  0  0  0  0  0
    7.4926   -0.1660    0.8886 H   0  0  0  0  0  0  0  0  0  0  0  0
    6.5061   -2.0758    2.0140 H   0  0  0  0  0  0  0  0  0  0  0  0
    4.0583   -2.3687    1.9651 H   0  0  0  0  0  0  0  0  0  0  0  0
  1  2  2  0
  2  3  1  0
  3  4  1  0
  4  5  1  0
  5  6  1  0
  6  7  1  0
  7  8  1  0
  8  9  1  0
  9 10  1  0
 10 11  1  0
  2 12  1  0
 12 13  2  0
 13 14  1  0
 14 15  2  0
 15 16  1  0
 16 17  2  0
 17 18  1  0
 18 19  2  0
 19 20  1  0
  9  4  1  0
 20 12  1  0
 11  6  1  0
 19 14  1  0
  3 21  1  0
  4 22  1  6
  5 23  1  0
  5 24  1  0
  7 25  1  0
  7 26  1  0
  8 27  1  0
  8 28  1  0
  9 29  1  0
 10 30  1  0
 10 31  1  0
 11 32  1  0
 11 33  1  0
 13 34  1  0
 15 35  1  0
 16 36  1  0
 17 37  1  0
 18 38  1  0
M  END
$$$$
[H]N=C(N([H])[H])N([H])C([H])([H])C([H])([H])C([H])([H])[C@@]([H])(C(=O)c1nc([H])c([H])s1)N([H])C(=O)[C@@]([H])(N([H])C(=O)[C@@]([H])(N([H])C(=O)[C@@]([H])(N([H])C(=O)C([H])([H])[H])C([H])([H])O[H])C([H])([H])C([H])([H])C([H])([H])C([H])([H])N([H])[H])C([H])(C([H])([H])[H])C([H])([H])[H]
     RDKit          3D

 84 84  0  0  0  0  0  0  0  0999 V2000
   -0.5053    0.5671   -3.5331 C   0  0  0  0  0  0  0  0  0  0  0  0
    0.6640    0.8078   -2.6283 C   0  0  0  0  0  0  0  0  0  0  0  0
    0.7915    2.2300   -2.1918 C   0  0  0  0  0  0  0  0  0  0  0  0
    0.6402   -0.2016   -1.5055 C   0  0  2  0  0  0  0  0  0  0  0  0
   -0.5523   -0.0578   -0.7546 N   0  0  0  0  0  0  0  0  0  0  0  0
   -1.7079   -0.8624   -0.7642 C   0  0  0  0  0  0  0  0  0  0  0  0
   -1.8728   -1.8851   -1.4846 O   0  0  0  0  0  0  0  0  0  0  0  0
   -2.8543   -0.5028    0.1401 C   0  0  2  0  0  0  0  0  0  0  0  0
   -2.4643   -0.8472    1.5723 C   0  0  0  0  0  0  0  0  0  0  0  0
   -3.5352   -0.4978    2.5727 C   0  0  0  0  0  0  0  0  0  0  0  0
   -3.7943    0.9879    2.6094 C   0  0  0  0  0  0  0  0  0  0  0  0
   -4.8802    1.2817    3.6293 C   0  0  0  0  0  0  0  0  0  0  0  0
   -5.1059    2.7277    3.6728 N   0  0  0  0  0  0  0  0  0  0  0  0
   -3.9691   -1.4051   -0.2183 N   0  0  0  0  0  0  0  0  0  0  0  0
   -5.2424   -0.9213   -0.6054 C   0  0  0  0  0  0  0  0  0  0  0  0
   -5.4266    0.3176   -0.6399 O   0  0  0  0  0  0  0  0  0  0  0  0
   -6.3468   -1.8724   -0.9661 C   0  0  2  0  0  0  0  0  0  0  0  0
   -5.8943   -2.6072   -2.2190 C   0  0  0  0  0  0  0  0  0  0  0  0
   -5.5703   -1.7390   -3.2558 O   0  0  0  0  0  0  0  0  0  0  0  0
   -7.5212   -1.0938   -1.2735 N   0  0  0  0  0  0  0  0  0  0  0  0
   -8.7152   -1.3199   -0.5538 C   0  0  0  0  0  0  0  0  0  0  0  0
   -9.9297   -0.5350   -0.8541 C   0  0  0  0  0  0  0  0  0  0  0  0
   -8.7653   -2.1853    0.3466 O   0  0  0  0  0  0  0  0  0  0  0  0
    1.8828   -0.1568   -0.6987 C   0  0  0  0  0  0  0  0  0  0  0  0
    1.7008   -0.0006    0.5414 O   0  0  0  0  0  0  0  0  0  0  0  0
    3.1604   -0.2696   -1.2118 N   0  0  0  0  0  0  0  0  0  0  0  0
    4.4309   -0.2383   -0.4266 C   0  0  1  0  0  0  0  0  0  0  0  0
    5.1522    0.9161   -0.8883 C   0  0  0  0  0  0  0  0  0  0  0  0
    6.4813    1.3279   -0.4275 C   0  0  0  0  0  0  0  0  0  0  0  0
    7.5869    0.2958   -0.6071 C   0  0  0  0  0  0  0  0  0  0  0  0
    8.8162    0.9019   -0.1116 N   0  0  0  0  0  0  0  0  0  0  0  0
   10.0740    0.2617   -0.1503 C   0  0  0  0  0  0  0  0  0  0  0  0
   11.0428    0.7679   -1.0784 N   0  0  0  0  0  0  0  0  0  0  0  0
   10.3822   -0.7265    0.5855 N   0  0  0  0  0  0  0  0  0  0  0  0
    4.2483   -0.7470    0.8850 C   0  0  0  0  0  0  0  0  0  0  0  0
    3.5915   -1.9061    0.8939 O   0  0  0  0  0  0  0  0  0  0  0  0
    4.5898   -0.3286    2.2309 C   0  0  0  0  0  0  0  0  0  0  0  0
    4.3245   -1.0430    3.3625 N   0  0  0  0  0  0  0  0  0  0  0  0
    4.6432   -0.5673    4.5025 C   0  0  0  0  0  0  0  0  0  0  0  0
    5.2491    0.6590    4.5640 C   0  0  0  0  0  0  0  0  0  0  0  0
    5.3179    1.0524    2.9118 S   0  0  0  0  0  0  0  0  0  0  0  0
   -0.2263    0.8943   -4.5719 H   0  0  0  0  0  0  0  0  0  0  0  0
   -0.6243   -0.5391   -3.6409 H   0  0  0  0  0  0  0  0  0  0  0  0
   -1.4060    1.0637   -3.1409 H   0  0  0  0  0  0  0  0  0  0  0  0
    1.5957    0.5520   -3.2153 H   0  0  0  0  0  0  0  0  0  0  0  0
    1.6257    2.7633   -2.7383 H   0  0  0  0  0  0  0  0  0  0  0  0
    0.8258    2.3982   -1.1104 H   0  0  0  0  0  0  0  0  0  0  0  0
   -0.1272    2.7817   -2.5547 H   0  0  0  0  0  0  0  0  0  0  0  0
    0.6143   -1.1923   -2.0145 H   0  0  0  0  0  0  0  0  0  0  0  0
   -0.5480    0.7869   -0.0979 H   0  0  0  0  0  0  0  0  0  0  0  0
   -3.2065    0.5160    0.0168 H   0  0  0  0  0  0  0  0  0  0  0  0
   -1.5053   -0.3722    1.8577 H   0  0  0  0  0  0  0  0  0  0  0  0
   -2.2986   -1.9555    1.5944 H   0  0  0  0  0  0  0  0  0  0  0  0
   -3.2713   -0.8618    3.5834 H   0  0  0  0  0  0  0  0  0  0  0  0
   -4.4696   -1.0584    2.2842 H   0  0  0  0  0  0  0  0  0  0  0  0
   -2.8535    1.5054    2.9637 H   0  0  0  0  0  0  0  0  0  0  0  0
   -4.0022    1.4072    1.6245 H   0  0  0  0  0  0  0  0  0  0  0  0
   -4.5268    0.9288    4.6114 H   0  0  0  0  0  0  0  0  0  0  0  0
   -5.8076    0.7651    3.3178 H   0  0  0  0  0  0  0  0  0  0  0  0
   -5.4632    2.9707    4.6188 H   0  0  0  0  0  0  0  0  0  0  0  0
   -5.8278    2.9756    2.9755 H   0  0  0  0  0  0  0  0  0  0  0  0
   -3.8240   -2.4369   -0.1899 H   0  0  0  0  0  0  0  0  0  0  0  0
   -6.5349   -2.6045   -0.1677 H   0  0  0  0  0  0  0  0  0  0  0  0
   -4.9483   -3.1327   -1.9514 H   0  0  0  0  0  0  0  0  0  0  0  0
   -6.6237   -3.3378   -2.5885 H   0  0  0  0  0  0  0  0  0  0  0  0
   -6.2908   -1.1404   -3.5307 H   0  0  0  0  0  0  0  0  0  0  0  0
   -7.5043   -0.3704   -2.0131 H   0  0  0  0  0  0  0  0  0  0  0  0
  -10.0885    0.3082   -0.1473 H   0  0  0  0  0  0  0  0  0  0  0  0
  -10.7861   -1.2513   -0.8242 H   0  0  0  0  0  0  0  0  0  0  0  0
   -9.8395   -0.1777   -1.9183 H   0  0  0  0  0  0  0  0  0  0  0  0
    3.2683   -0.3847   -2.2400 H   0  0  0  0  0  0  0  0  0  0  0  0
    4.9734   -1.1568   -0.9907 H   0  0  0  0  0  0  0  0  0  0  0  0
    4.5129    1.8666   -0.9327 H   0  0  0  0  0  0  0  0  0  0  0  0
    5.2834    0.7605   -2.0386 H   0  0  0  0  0  0  0  0  0  0  0  0
    6.6115    1.9097    0.4683 H   0  0  0  0  0  0  0  0  0  0  0  0
    6.8092    2.1244   -1.2390 H   0  0  0  0  0  0  0  0  0  0  0  0
    7.3625   -0.6614   -0.0990 H   0  0  0  0  0  0  0  0  0  0  0  0
    7.7627    0.0605   -1.6777 H   0  0  0  0  0  0  0  0  0  0  0  0
    8.8023    1.8736    0.3035 H   0  0  0  0  0  0  0  0  0  0  0  0
   10.7036    1.0215   -2.0152 H   0  0  0  0  0  0  0  0  0  0  0  0
   12.0244    0.8443   -0.7345 H   0  0  0  0  0  0  0  0  0  0  0  0
    9.6816   -1.1169    1.2762 H   0  0  0  0  0  0  0  0  0  0  0  0
    4.4443   -1.1174    5.4520 H   0  0  0  0  0  0  0  0  0  0  0  0
    5.5859    1.2048    5.4629 H   0  0  0  0  0  0  0  0  0  0  0  0
  1  2  1  0
  2  3  1  0
  2  4  1  0
  4  5  1  0
  5  6  1  0
  6  7  2  0
  6  8  1  0
  8  9  1  0
  9 10  1  0
 10 11  1  0
 11 12  1  0
 12 13  1  0
  8 14  1  0
 14 15  1  0
 15 16  2  0
 15 17  1  0
 17 18  1  0
 18 19  1  0
 17 20  1  0
 20 21  1  0
 21 22  1  0
 21 23  2  0
  4 24  1  0
 24 25  2  0
 24 26  1  0
 26 27  1  0
 27 28  1  0
 28 29  1  0
 29 30  1  0
 30 31  1  0
 31 32  1  0
 32 33  1  0
 32 34  2  3
 27 35  1  0
 35 36  2  0
 35 37  1  0
 37 38  2  0
 38 39  1  0
 39 40  2  0
 40 41  1  0
 41 37  1  0
  1 42  1  0
  1 43  1  0
  1 44  1  0
  2 45  1  0
  3 46  1  0
  3 47  1  0
  3 48  1  0
  4 49  1  6
  5 50  1  0
  8 51  1  1
  9 52  1  0
  9 53  1  0
 10 54  1  0
 10 55  1  0
 11 56  1  0
 11 57  1  0
 12 58  1  0
 12 59  1  0
 13 60  1  0
 13 61  1  0
 14 62  1  0
 17 63  1  1
 18 64  1  0
 18 65  1  0
 19 66  1  0
 20 67  1  0
 22 68  1  0
 22 69  1  0
 22 70  1  0
 26 71  1  0
 27 72  1  6
 28 73  1  0
 28 74  1  0
 29 75  1  0
 29 76  1  0
 30 77  1  0
 30 78  1  0
 31 79  1  0
 33 80  1  0
 33 81  1  0
 34 82  1  0
 39 83  1  0
 40 84  1  0
M  END
$$$$
[H]c1nc(C([H])([H])[H])nc(OC([H])([H])[C@@]2([H])C([H])([H])[C@]2([H])c2nc([H])c(C([H])([H])[H])c([H])c2[H])c1-c1c([H])c([H])n(C([H])([H])[H])c(=O)c1[H]
     RDKit          3D

 49 52  0  0  0  0  0  0  0  0999 V2000
    7.0909    1.8338   -0.3531 C   0  0  0  0  0  0  0  0  0  0  0  0
    5.6927    1.3337   -0.3629 C   0  0  0  0  0  0  0  0  0  0  0  0
    5.4387   -0.0098   -0.2147 C   0  0  0  0  0  0  0  0  0  0  0  0
    4.0976   -0.3988   -0.2351 C   0  0  0  0  0  0  0  0  0  0  0  0
    3.0789    0.5178   -0.3955 C   0  0  0  0  0  0  0  0  0  0  0  0
    3.3606    1.8271   -0.5382 N   0  0  0  0  0  0  0  0  0  0  0  0
    4.6414    2.2173   -0.5210 C   0  0  0  0  0  0  0  0  0  0  0  0
    1.6904   -0.0052   -0.4016 C   0  0  1  0  0  0  0  0  0  0  0  0
    1.4146   -1.4191   -0.7465 C   0  0  0  0  0  0  0  0  0  0  0  0
    1.4529   -1.0770    0.6749 C   0  0  2  0  0  0  0  0  0  0  0  0
    0.3136   -0.7510    1.5605 C   0  0  0  0  0  0  0  0  0  0  0  0
   -0.9138   -0.6713    0.9642 O   0  0  0  0  0  0  0  0  0  0  0  0
   -1.6961   -1.6354    0.3766 C   0  0  0  0  0  0  0  0  0  0  0  0
   -1.3707   -2.9447    0.3017 N   0  0  0  0  0  0  0  0  0  0  0  0
   -2.1857   -3.8344   -0.2821 C   0  0  0  0  0  0  0  0  0  0  0  0
   -1.8865   -5.2737   -0.3944 C   0  0  0  0  0  0  0  0  0  0  0  0
   -3.3608   -3.4079   -0.8076 N   0  0  0  0  0  0  0  0  0  0  0  0
   -3.7353   -2.1307   -0.7639 C   0  0  0  0  0  0  0  0  0  0  0  0
   -2.9112   -1.2057   -0.1688 C   0  0  0  0  0  0  0  0  0  0  0  0
   -3.2687    0.2111   -0.0863 C   0  0  0  0  0  0  0  0  0  0  0  0
   -3.7489    0.8513   -1.2066 C   0  0  0  0  0  0  0  0  0  0  0  0
   -4.0974    2.1947   -1.1486 C   0  0  0  0  0  0  0  0  0  0  0  0
   -3.9875    2.9226   -0.0250 N   0  0  0  0  0  0  0  0  0  0  0  0
   -4.3655    4.3414   -0.0003 C   0  0  0  0  0  0  0  0  0  0  0  0
   -3.5198    2.3092    1.0764 C   0  0  0  0  0  0  0  0  0  0  0  0
   -3.4062    2.9707    2.1478 O   0  0  0  0  0  0  0  0  0  0  0  0
   -3.1633    0.9729    1.0547 C   0  0  0  0  0  0  0  0  0  0  0  0
    7.5353    1.6072   -1.3312 H   0  0  0  0  0  0  0  0  0  0  0  0
    7.6260    1.3079    0.4895 H   0  0  0  0  0  0  0  0  0  0  0  0
    7.0589    2.9143   -0.1098 H   0  0  0  0  0  0  0  0  0  0  0  0
    6.2327   -0.7372   -0.0881 H   0  0  0  0  0  0  0  0  0  0  0  0
    3.9182   -1.4670   -0.1168 H   0  0  0  0  0  0  0  0  0  0  0  0
    4.8204    3.2899   -0.6405 H   0  0  0  0  0  0  0  0  0  0  0  0
    0.9321    0.7741   -0.5510 H   0  0  0  0  0  0  0  0  0  0  0  0
    2.2449   -2.0562   -1.1789 H   0  0  0  0  0  0  0  0  0  0  0  0
    0.4898   -1.5483   -1.3264 H   0  0  0  0  0  0  0  0  0  0  0  0
    2.3727   -1.4630    1.2092 H   0  0  0  0  0  0  0  0  0  0  0  0
    0.3231   -1.4873    2.4176 H   0  0  0  0  0  0  0  0  0  0  0  0
    0.4813    0.2353    2.1107 H   0  0  0  0  0  0  0  0  0  0  0  0
   -1.3574   -5.5088   -1.3433 H   0  0  0  0  0  0  0  0  0  0  0  0
   -1.2624   -5.6269    0.4332 H   0  0  0  0  0  0  0  0  0  0  0  0
   -2.8444   -5.8650   -0.4106 H   0  0  0  0  0  0  0  0  0  0  0  0
   -4.6802   -1.7763   -1.1844 H   0  0  0  0  0  0  0  0  0  0  0  0
   -3.8638    0.3296   -2.1440 H   0  0  0  0  0  0  0  0  0  0  0  0
   -4.4761    2.6939   -2.0378 H   0  0  0  0  0  0  0  0  0  0  0  0
   -5.3525    4.4964   -0.4806 H   0  0  0  0  0  0  0  0  0  0  0  0
   -3.5811    4.9642   -0.4485 H   0  0  0  0  0  0  0  0  0  0  0  0
   -4.4759    4.6541    1.0631 H   0  0  0  0  0  0  0  0  0  0  0  0
   -2.7966    0.5303    1.9662 H   0  0  0  0  0  0  0  0  0  0  0  0
  1  2  1  0
  2  3  2  0
  3  4  1  0
  4  5  2  0
  5  6  1  0
  6  7  2  0
  5  8  1  0
  8  9  1  0
  9 10  1  0
 10 11  1  0
 11 12  1  0
 12 13  1  0
 13 14  2  0
 14 15  1  0
 15 16  1  0
 15 17  2  0
 17 18  1  0
 18 19  2  0
 19 20  1  0
 20 21  1  0
 21 22  2  0
 22 23  1  0
 23 24  1  0
 23 25  1  0
 25 26  2  0
 25 27  1  0
  7  2  1  0
 10  8  1  0
 19 13  1  0
 27 20  2  0
  1 28  1  0
  1 29  1  0
  1 30  1  0
  3 31  1  0
  4 32  1  0
  7 33  1  0
  8 34  1  6
  9 35  1  0
  9 36  1  0
 10 37  1  1
 11 38  1  0
 11 39  1  0
 16 40  1  0
 16 41  1  0
 16 42  1  0
 18 43  1  0
 21 44  1  0
 22 45  1  0
 24 46  1  0
 24 47  1  0
 24 48  1  0
 27 49  1  0
M  END
$$$$
[H]c1c([H])c([H])c(C([H])([H])[C@@]2([H])C(=O)N3C([H])([H])C([H])([H])C([H])([H])[C@@]3([H])C(=O)N([H])[C@@]([H])(C([H])([H])c3c([H])n([H])c4c([H])c([H])c([H])c([H])c34)C(=O)N([H])[C@@]([H])([C@@]([H])(C([H])([H])[H])C([H])([H])C([H])([H])[H])C(=O)N([H])[C@]([H])(C([H])(C([H])([H])[H])C([H])([H])[H])C(=O)N2[H])c([H])c1[H]
     RDKit          3D

 93 97  0  0  0  0  0  0  0  0999 V2000
   -1.7872    5.0230   -1.0168 C   0  0  0  0  0  0  0  0  0  0  0  0
   -2.2901    4.7204    0.3538 C   0  0  0  0  0  0  0  0  0  0  0  0
   -2.5822    3.3074    0.6564 C   0  0  2  0  0  0  0  0  0  0  0  0
   -3.0990    3.2107    2.0770 C   0  0  0  0  0  0  0  0  0  0  0  0
   -1.3902    2.3509    0.4668 C   0  0  2  0  0  0  0  0  0  0  0  0
   -1.7863    0.9884    0.7764 N   0  0  0  0  0  0  0  0  0  0  0  0
   -2.6357    0.1189    0.0988 C   0  0  0  0  0  0  0  0  0  0  0  0
   -3.8000   -0.0966    0.6456 O   0  0  0  0  0  0  0  0  0  0  0  0
   -2.4961   -0.6330   -1.1476 C   0  0  2  0  0  0  0  0  0  0  0  0
   -2.8245   -2.0626   -1.1637 C   0  0  0  0  0  0  0  0  0  0  0  0
   -4.1299   -2.5307   -0.8067 C   0  0  0  0  0  0  0  0  0  0  0  0
   -5.2403   -2.5156   -1.6445 C   0  0  0  0  0  0  0  0  0  0  0  0
   -6.3153   -2.9703   -0.9767 N   0  0  0  0  0  0  0  0  0  0  0  0
   -5.9535   -3.2836    0.2627 C   0  0  0  0  0  0  0  0  0  0  0  0
   -6.6935   -3.8093    1.3020 C   0  0  0  0  0  0  0  0  0  0  0  0
   -6.0888   -4.0861    2.5003 C   0  0  0  0  0  0  0  0  0  0  0  0
   -4.7456   -3.8308    2.6411 C   0  0  0  0  0  0  0  0  0  0  0  0
   -4.0243   -3.3131    1.6175 C   0  0  0  0  0  0  0  0  0  0  0  0
   -4.5830   -3.0178    0.3992 C   0  0  0  0  0  0  0  0  0  0  0  0
   -1.2664   -0.3243   -1.9009 N   0  0  0  0  0  0  0  0  0  0  0  0
   -0.2555   -1.0981   -2.4232 C   0  0  0  0  0  0  0  0  0  0  0  0
   -0.2202   -1.1566   -3.7503 O   0  0  0  0  0  0  0  0  0  0  0  0
    0.8527   -1.9178   -1.9237 C   0  0  2  0  0  0  0  0  0  0  0  0
    0.5390   -3.3796   -2.2375 C   0  0  0  0  0  0  0  0  0  0  0  0
    0.6370   -4.1219   -0.9504 C   0  0  0  0  0  0  0  0  0  0  0  0
    0.9403   -3.0900    0.0683 C   0  0  0  0  0  0  0  0  0  0  0  0
    1.2910   -1.8556   -0.5963 N   0  0  0  0  0  0  0  0  0  0  0  0
    1.9937   -0.6963   -0.1004 C   0  0  0  0  0  0  0  0  0  0  0  0
    1.5883   -0.2560    1.0058 O   0  0  0  0  0  0  0  0  0  0  0  0
    3.1035   -0.0273   -0.7711 C   0  0  2  0  0  0  0  0  0  0  0  0
    4.3895   -0.0745    0.0806 C   0  0  0  0  0  0  0  0  0  0  0  0
    4.8352   -1.4537    0.3491 C   0  0  0  0  0  0  0  0  0  0  0  0
    4.4301   -2.1129    1.4802 C   0  0  0  0  0  0  0  0  0  0  0  0
    4.8437   -3.4221    1.7487 C   0  0  0  0  0  0  0  0  0  0  0  0
    5.6784   -4.0799    0.8665 C   0  0  0  0  0  0  0  0  0  0  0  0
    6.0774   -3.4071   -0.2638 C   0  0  0  0  0  0  0  0  0  0  0  0
    5.6744   -2.1194   -0.5346 C   0  0  0  0  0  0  0  0  0  0  0  0
    2.9464    1.3076   -1.2160 N   0  0  0  0  0  0  0  0  0  0  0  0
    2.1774    2.3833   -0.7247 C   0  0  0  0  0  0  0  0  0  0  0  0
    1.4211    2.9359   -1.5669 O   0  0  0  0  0  0  0  0  0  0  0  0
    2.1572    2.9331    0.6379 C   0  0  2  0  0  0  0  0  0  0  0  0
    0.9195    3.3750    1.1642 N   0  0  0  0  0  0  0  0  0  0  0  0
   -0.3140    2.7780    1.4115 C   0  0  0  0  0  0  0  0  0  0  0  0
   -0.6600    2.5208    2.6343 O   0  0  0  0  0  0  0  0  0  0  0  0
    3.0907    4.1825    0.5448 C   0  0  0  0  0  0  0  0  0  0  0  0
    2.5788    5.1693   -0.4515 C   0  0  0  0  0  0  0  0  0  0  0  0
    4.5114    3.7936    0.3292 C   0  0  0  0  0  0  0  0  0  0  0  0
   -0.7391    4.7600   -1.2137 H   0  0  0  0  0  0  0  0  0  0  0  0
   -2.4745    4.5051   -1.7333 H   0  0  0  0  0  0  0  0  0  0  0  0
   -1.8877    6.1394   -1.1628 H   0  0  0  0  0  0  0  0  0  0  0  0
   -3.2024    5.3313    0.5704 H   0  0  0  0  0  0  0  0  0  0  0  0
   -1.5506    5.0825    1.1302 H   0  0  0  0  0  0  0  0  0  0  0  0
   -3.3754    2.9288   -0.0108 H   0  0  0  0  0  0  0  0  0  0  0  0
   -4.1973    3.4591    2.0142 H   0  0  0  0  0  0  0  0  0  0  0  0
   -3.0837    2.1633    2.4530 H   0  0  0  0  0  0  0  0  0  0  0  0
   -2.6704    3.9538    2.7466 H   0  0  0  0  0  0  0  0  0  0  0  0
   -1.1352    2.4128   -0.5735 H   0  0  0  0  0  0  0  0  0  0  0  0
   -1.3708    0.5926    1.6793 H   0  0  0  0  0  0  0  0  0  0  0  0
   -3.3672   -0.1766   -1.7887 H   0  0  0  0  0  0  0  0  0  0  0  0
   -2.0129   -2.5723   -0.5299 H   0  0  0  0  0  0  0  0  0  0  0  0
   -2.5139   -2.4354   -2.2068 H   0  0  0  0  0  0  0  0  0  0  0  0
   -5.2685   -2.1933   -2.6813 H   0  0  0  0  0  0  0  0  0  0  0  0
   -7.2816   -3.0507   -1.4091 H   0  0  0  0  0  0  0  0  0  0  0  0
   -7.7619   -4.0133    1.1942 H   0  0  0  0  0  0  0  0  0  0  0  0
   -6.6555   -4.5065    3.3478 H   0  0  0  0  0  0  0  0  0  0  0  0
   -4.2486   -4.0518    3.6027 H   0  0  0  0  0  0  0  0  0  0  0  0
   -2.9757   -3.1191    1.7397 H   0  0  0  0  0  0  0  0  0  0  0  0
   -1.2097    0.7163   -2.0714 H   0  0  0  0  0  0  0  0  0  0  0  0
    1.7782   -1.7259   -2.6033 H   0  0  0  0  0  0  0  0  0  0  0  0
    1.2755   -3.8408   -2.9335 H   0  0  0  0  0  0  0  0  0  0  0  0
   -0.4387   -3.4777   -2.7514 H   0  0  0  0  0  0  0  0  0  0  0  0
   -0.3845   -4.5638   -0.7624 H   0  0  0  0  0  0  0  0  0  0  0  0
    1.3977   -4.9378   -0.9704 H   0  0  0  0  0  0  0  0  0  0  0  0
    1.6449   -3.4274    0.8525 H   0  0  0  0  0  0  0  0  0  0  0  0
   -0.0079   -2.8520    0.6368 H   0  0  0  0  0  0  0  0  0  0  0  0
    3.4627   -0.6748   -1.6619 H   0  0  0  0  0  0  0  0  0  0  0  0
    4.2887    0.5270    1.0035 H   0  0  0  0  0  0  0  0  0  0  0  0
    5.2087    0.4172   -0.4952 H   0  0  0  0  0  0  0  0  0  0  0  0
    3.7813   -1.6633    2.2164 H   0  0  0  0  0  0  0  0  0  0  0  0
    4.5307   -3.9515    2.6357 H   0  0  0  0  0  0  0  0  0  0  0  0
    6.0080   -5.1033    1.0688 H   0  0  0  0  0  0  0  0  0  0  0  0
    6.7268   -3.9056   -0.9589 H   0  0  0  0  0  0  0  0  0  0  0  0
    5.9749   -1.5771   -1.4112 H   0  0  0  0  0  0  0  0  0  0  0  0
    3.5509    1.5210   -2.1118 H   0  0  0  0  0  0  0  0  0  0  0  0
    2.7411    2.3039    1.3585 H   0  0  0  0  0  0  0  0  0  0  0  0
    0.9278    4.4230    1.4709 H   0  0  0  0  0  0  0  0  0  0  0  0
    3.0172    4.6374    1.5629 H   0  0  0  0  0  0  0  0  0  0  0  0
    2.8388    6.2176   -0.1191 H   0  0  0  0  0  0  0  0  0  0  0  0
    3.0407    5.0625   -1.4444 H   0  0  0  0  0  0  0  0  0  0  0  0
    1.4749    5.1809   -0.5220 H   0  0  0  0  0  0  0  0  0  0  0  0
    5.1524    4.6415    0.6371 H   0  0  0  0  0  0  0  0  0  0  0  0
    4.7640    3.5629   -0.7259 H   0  0  0  0  0  0  0  0  0  0  0  0
    4.7327    2.9238    0.9798 H   0  0  0  0  0  0  0  0  0  0  0  0
  1  2  1  0
  2  3  1  0
  3  4  1  0
  3  5  1  0
  5  6  1  0
  6  7  1  0
  7  8  2  0
  7  9  1  0
  9 10  1  0
 10 11  1  0
 11 12  2  0
 12 13  1  0
 13 14  1  0
 14 15  2  0
 15 16  1  0
 16 17  2  0
 17 18  1  0
 18 19  2  0
  9 20  1  0
 20 21  1  0
 21 22  2  0
 21 23  1  0
 23 24  1  0
 24 25  1  0
 25 26  1  0
 26 27  1  0
 27 28  1  0
 28 29  2  0
 28 30  1  0
 30 31  1  0
 31 32  1  0
 32 33  2  0
 33 34  1  0
 34 35  2  0
 35 36  1  0
 36 37  2  0
 30 38  1  0
 38 39  1  0
 39 40  2  0
 39 41  1  0
 41 42  1  0
 42 43  1  0
 43 44  2  0
 41 45  1  0
 45 46  1  0
 45 47  1  0
 43  5  1  0
 19 11  1  0
 27 23  1  0
 37 32  1  0
 19 14  1  0
  1 48  1  0
  1 49  1  0
  1 50  1  0
  2 51  1  0
  2 52  1  0
  3 53  1  6
  4 54  1  0
  4 55  1  0
  4 56  1  0
  5 57  1  6
  6 58  1  0
  9 59  1  6
 10 60  1  0
 10 61  1  0
 12 62  1  0
 13 63  1  0
 15 64  1  0
 16 65  1  0
 17 66  1  0
 18 67  1  0
 20 68  1  0
 23 69  1  6
 24 70  1  0
 24 71  1  0
 25 72  1  0
 25 73  1  0
 26 74  1  0
 26 75  1  0
 30 76  1  6
 31 77  1  0
 31 78  1  0
 33 79  1  0
 34 80  1  0
 35 81  1  0
 36 82  1  0
 37 83  1  0
 38 84  1  0
 41 85  1  1
 42 86  1  0
 45 87  1  0
 46 88  1  0
 46 89  1  0
 46 90  1  0
 47 91  1  0
 47 92  1  0
 47 93  1  0
M  END
$$$$
[H]c1nc(N([H])C(=O)c2c([H])c([H])c([H])c(C(F)(F)F)c2[H])c([H])c(-c2c(-c3c([H])c([H])c([H])c([H])c3[H])c([H])nn2[H])c1[H]
     RDKit          3D

 45 48  0  0  0  0  0  0  0  0999 V2000
    7.6560   -2.1061   -0.3442 F   0  0  0  0  0  0  0  0  0  0  0  0
    7.1905   -1.4510    0.7981 C   0  0  0  0  0  0  0  0  0  0  0  0
    8.2632   -1.0887    1.5641 F   0  0  0  0  0  0  0  0  0  0  0  0
    6.5189   -2.4648    1.5023 F   0  0  0  0  0  0  0  0  0  0  0  0
    6.2951   -0.3307    0.5397 C   0  0  0  0  0  0  0  0  0  0  0  0
    6.8072    0.9526    0.6019 C   0  0  0  0  0  0  0  0  0  0  0  0
    5.9843    2.0157    0.3929 C   0  0  0  0  0  0  0  0  0  0  0  0
    4.6309    1.8326    0.1206 C   0  0  0  0  0  0  0  0  0  0  0  0
    4.0968    0.5758    0.0608 C   0  0  0  0  0  0  0  0  0  0  0  0
    4.9223   -0.5163    0.2643 C   0  0  0  0  0  0  0  0  0  0  0  0
    2.6665    0.3638   -0.1395 C   0  0  0  0  0  0  0  0  0  0  0  0
    2.1746   -0.6489    0.4276 O   0  0  0  0  0  0  0  0  0  0  0  0
    1.8789    1.2197   -0.8959 N   0  0  0  0  0  0  0  0  0  0  0  0
    0.4821    1.0773   -1.1051 C   0  0  0  0  0  0  0  0  0  0  0  0
   -0.2245    0.0237   -0.6908 C   0  0  0  0  0  0  0  0  0  0  0  0
   -1.6266   -0.0923   -0.7707 C   0  0  0  0  0  0  0  0  0  0  0  0
   -2.2980    0.9330   -1.3270 C   0  0  0  0  0  0  0  0  0  0  0  0
   -1.5615    2.0647   -1.7795 C   0  0  0  0  0  0  0  0  0  0  0  0
   -0.2164    2.1124   -1.6617 N   0  0  0  0  0  0  0  0  0  0  0  0
   -2.2434   -1.2756   -0.1914 C   0  0  0  0  0  0  0  0  0  0  0  0
   -1.5301   -2.4427   -0.0807 N   0  0  0  0  0  0  0  0  0  0  0  0
   -2.2351   -3.3565    0.5781 N   0  0  0  0  0  0  0  0  0  0  0  0
   -3.4066   -2.8140    0.9021 C   0  0  0  0  0  0  0  0  0  0  0  0
   -3.4099   -1.4729    0.4007 C   0  0  0  0  0  0  0  0  0  0  0  0
   -4.5789   -0.6041    0.4931 C   0  0  0  0  0  0  0  0  0  0  0  0
   -4.7089    0.5650    1.1581 C   0  0  0  0  0  0  0  0  0  0  0  0
   -5.8966    1.2516    1.1110 C   0  0  0  0  0  0  0  0  0  0  0  0
   -7.0119    0.8068    0.3989 C   0  0  0  0  0  0  0  0  0  0  0  0
   -6.8752   -0.3782   -0.2680 C   0  0  0  0  0  0  0  0  0  0  0  0
   -5.7036   -1.0669   -0.2243 C   0  0  0  0  0  0  0  0  0  0  0  0
    7.8454    1.1088    0.8110 H   0  0  0  0  0  0  0  0  0  0  0  0
    6.3684    3.0258    0.4387 H   0  0  0  0  0  0  0  0  0  0  0  0
    4.0474    2.7194   -0.0699 H   0  0  0  0  0  0  0  0  0  0  0  0
    4.5589   -1.4842    0.1937 H   0  0  0  0  0  0  0  0  0  0  0  0
    2.3579    2.0215   -1.3346 H   0  0  0  0  0  0  0  0  0  0  0  0
    0.2595   -0.8190   -0.2852 H   0  0  0  0  0  0  0  0  0  0  0  0
   -3.3690    0.9381   -1.4808 H   0  0  0  0  0  0  0  0  0  0  0  0
   -2.1130    2.8839   -2.2160 H   0  0  0  0  0  0  0  0  0  0  0  0
   -0.5295   -2.6165   -0.4273 H   0  0  0  0  0  0  0  0  0  0  0  0
   -4.2520   -3.2295    1.4326 H   0  0  0  0  0  0  0  0  0  0  0  0
   -3.8830    0.9551    1.7077 H   0  0  0  0  0  0  0  0  0  0  0  0
   -6.0111    2.2193    1.6373 H   0  0  0  0  0  0  0  0  0  0  0  0
   -7.9413    1.3894    0.3595 H   0  0  0  0  0  0  0  0  0  0  0  0
   -7.7254   -0.7741   -0.8172 H   0  0  0  0  0  0  0  0  0  0  0  0
   -5.6534   -2.0235   -0.7432 H   0  0  0  0  0  0  0  0  0  0  0  0
  1  2  1  0
  2  3  1  0
  2  4  1  0
  2  5  1  0
  5  6  2  0
  6  7  1  0
  7  8  2  0
  8  9  1  0
  9 10  2  0
  9 11  1  0
 11 12  2  0
 11 13  1  0
 13 14  1  0
 14 15  2  0
 15 16  1  0
 16 17  2  0
 17 18  1  0
 18 19  2  0
 16 20  1  0
 20 21  1  0
 21 22  1  0
 22 23  2  0
 23 24  1  0
 24 25  1  0
 25 26  2  0
 26 27  1  0
 27 28  2  0
 28 29  1  0
 29 30  2  0
 10  5  1  0
 19 14  1  0
 24 20  2  0
 30 25  1  0
  6 31  1  0
  7 32  1  0
  8 33  1  0
 10 34  1  0
 13 35  1  0
 15 36  1  0
 17 37  1  0
 18 38  1  0
 21 39  1  0
 23 40  1  0
 26 41  1  0
 27 42  1  0
 28 43  1  0
 29 44  1  0
 30 45  1  0
M  END
$$$$
[H]OC(=O)[C@]([H])(Oc1c([H])c([H])c(-c2c([H])c([H])c(-c3c(C([H])([H])c4c([H])c([H])c([H])c([H])c4[H])oc4c([H])c([H])c([H])c([H])c34)c([H])c2[H])c([H])c1[H])C([H])([H])c1c([H])c([H])c([H])c([H])c1[H]
     RDKit          3D

 68 73  0  0  0  0  0  0  0  0999 V2000
    7.8851   -2.7884    0.1646 O   0  0  0  0  0  0  0  0  0  0  0  0
    6.9075   -2.0461   -0.4499 C   0  0  0  0  0  0  0  0  0  0  0  0
    6.7879   -2.0858   -1.6906 O   0  0  0  0  0  0  0  0  0  0  0  0
    5.9904   -1.1982    0.3447 C   0  0  1  0  0  0  0  0  0  0  0  0
    6.7425   -0.1302    1.1340 C   0  0  0  0  0  0  0  0  0  0  0  0
    7.5071    0.7934    0.2805 C   0  0  0  0  0  0  0  0  0  0  0  0
    8.8258    0.5106   -0.0030 C   0  0  0  0  0  0  0  0  0  0  0  0
    9.5202    1.3990   -0.8270 C   0  0  0  0  0  0  0  0  0  0  0  0
    8.9430    2.5353   -1.3611 C   0  0  0  0  0  0  0  0  0  0  0  0
    7.6203    2.7663   -1.0422 C   0  0  0  0  0  0  0  0  0  0  0  0
    6.9133    1.9273   -0.2461 C   0  0  0  0  0  0  0  0  0  0  0  0
    5.0389   -0.5576   -0.4055 O   0  0  0  0  0  0  0  0  0  0  0  0
    3.6801   -0.6082   -0.2059 C   0  0  0  0  0  0  0  0  0  0  0  0
    2.8329    0.0980   -1.0885 C   0  0  0  0  0  0  0  0  0  0  0  0
    1.4745    0.0824   -0.9350 C   0  0  0  0  0  0  0  0  0  0  0  0
    0.8771   -0.6272    0.0937 C   0  0  0  0  0  0  0  0  0  0  0  0
    1.7122   -1.3080    0.9432 C   0  0  0  0  0  0  0  0  0  0  0  0
    3.0899   -1.3142    0.8174 C   0  0  0  0  0  0  0  0  0  0  0  0
   -0.5774   -0.6422    0.2409 C   0  0  0  0  0  0  0  0  0  0  0  0
   -1.4374   -0.5795   -0.8288 C   0  0  0  0  0  0  0  0  0  0  0  0
   -2.8161   -0.5880   -0.6010 C   0  0  0  0  0  0  0  0  0  0  0  0
   -3.3693   -0.6562    0.6508 C   0  0  0  0  0  0  0  0  0  0  0  0
   -2.4785   -0.7193    1.7291 C   0  0  0  0  0  0  0  0  0  0  0  0
   -1.1239   -0.7106    1.4929 C   0  0  0  0  0  0  0  0  0  0  0  0
   -4.7757   -0.6792    0.9583 C   0  0  0  0  0  0  0  0  0  0  0  0
   -5.6518    0.3342    1.1840 C   0  0  0  0  0  0  0  0  0  0  0  0
   -5.4209    1.7895    1.1569 C   0  0  0  0  0  0  0  0  0  0  0  0
   -5.4698    2.4127   -0.1710 C   0  0  0  0  0  0  0  0  0  0  0  0
   -6.7314    2.6545   -0.7396 C   0  0  0  0  0  0  0  0  0  0  0  0
   -6.8505    3.2651   -1.9705 C   0  0  0  0  0  0  0  0  0  0  0  0
   -5.7403    3.6579   -2.6835 C   0  0  0  0  0  0  0  0  0  0  0  0
   -4.4982    3.4263   -2.1370 C   0  0  0  0  0  0  0  0  0  0  0  0
   -4.3974    2.8154   -0.9066 C   0  0  0  0  0  0  0  0  0  0  0  0
   -6.8451   -0.2113    1.4528 O   0  0  0  0  0  0  0  0  0  0  0  0
   -6.8003   -1.5005    1.4158 C   0  0  0  0  0  0  0  0  0  0  0  0
   -7.7626   -2.4821    1.6219 C   0  0  0  0  0  0  0  0  0  0  0  0
   -7.3659   -3.7937    1.5031 C   0  0  0  0  0  0  0  0  0  0  0  0
   -6.0868   -4.1808    1.1951 C   0  0  0  0  0  0  0  0  0  0  0  0
   -5.1404   -3.1991    0.9926 C   0  0  0  0  0  0  0  0  0  0  0  0
   -5.5108   -1.8770    1.1057 C   0  0  0  0  0  0  0  0  0  0  0  0
    7.8449   -3.7878    0.3216 H   0  0  0  0  0  0  0  0  0  0  0  0
    5.5457   -1.8554    1.1055 H   0  0  0  0  0  0  0  0  0  0  0  0
    5.9777    0.4220    1.7182 H   0  0  0  0  0  0  0  0  0  0  0  0
    7.3969   -0.6369    1.8687 H   0  0  0  0  0  0  0  0  0  0  0  0
    9.3701   -0.3519    0.3723 H   0  0  0  0  0  0  0  0  0  0  0  0
   10.5575    1.2284   -1.0846 H   0  0  0  0  0  0  0  0  0  0  0  0
    9.5097    3.2043   -1.9975 H   0  0  0  0  0  0  0  0  0  0  0  0
    7.0967    3.6492   -1.4316 H   0  0  0  0  0  0  0  0  0  0  0  0
    5.8611    2.0811    0.0274 H   0  0  0  0  0  0  0  0  0  0  0  0
    3.3201    0.6459   -1.8836 H   0  0  0  0  0  0  0  0  0  0  0  0
    0.8200    0.6298   -1.6183 H   0  0  0  0  0  0  0  0  0  0  0  0
    1.2704   -1.8841    1.7730 H   0  0  0  0  0  0  0  0  0  0  0  0
    3.6849   -1.8908    1.5495 H   0  0  0  0  0  0  0  0  0  0  0  0
   -1.0233   -0.5250   -1.8241 H   0  0  0  0  0  0  0  0  0  0  0  0
   -3.4951   -0.5390   -1.4498 H   0  0  0  0  0  0  0  0  0  0  0  0
   -2.9192   -0.7742    2.7113 H   0  0  0  0  0  0  0  0  0  0  0  0
   -0.4832   -0.7615    2.3626 H   0  0  0  0  0  0  0  0  0  0  0  0
   -6.1786    2.2710    1.8503 H   0  0  0  0  0  0  0  0  0  0  0  0
   -4.4399    2.0125    1.6494 H   0  0  0  0  0  0  0  0  0  0  0  0
   -7.6079    2.3456   -0.1749 H   0  0  0  0  0  0  0  0  0  0  0  0
   -7.8461    3.4401   -2.3876 H   0  0  0  0  0  0  0  0  0  0  0  0
   -5.8893    4.1352   -3.6484 H   0  0  0  0  0  0  0  0  0  0  0  0
   -3.6321    3.7335   -2.6951 H   0  0  0  0  0  0  0  0  0  0  0  0
   -3.3996    2.6407   -0.4926 H   0  0  0  0  0  0  0  0  0  0  0  0
   -8.7915   -2.1836    1.8682 H   0  0  0  0  0  0  0  0  0  0  0  0
   -8.1143   -4.5600    1.6638 H   0  0  0  0  0  0  0  0  0  0  0  0
   -5.8109   -5.2465    1.1104 H   0  0  0  0  0  0  0  0  0  0  0  0
   -4.1228   -3.4267    0.7500 H   0  0  0  0  0  0  0  0  0  0  0  0
  1  2  1  0
  2  3  2  0
  2  4  1  0
  4  5  1  0
  5  6  1  0
  6  7  2  0
  7  8  1  0
  8  9  2  0
  9 10  1  0
 10 11  2  0
  4 12  1  0
 12 13  1  0
 13 14  2  0
 14 15  1  0
 15 16  2  0
 16 17  1  0
 17 18  2  0
 16 19  1  0
 19 20  2  0
 20 21  1  0
 21 22  2  0
 22 23  1  0
 23 24  2  0
 22 25  1  0
 25 26  2  0
 26 27  1  0
 27 28  1  0
 28 29  2  0
 29 30  1  0
 30 31  2  0
 31 32  1  0
 32 33  2  0
 26 34  1  0
 34 35  1  0
 35 36  2  0
 36 37  1  0
 37 38  2  0
 38 39  1  0
 39 40  2  0
 11  6  1  0
 18 13  1  0
 24 19  1  0
 40 25  1  0
 33 28  1  0
 40 35  1  0
  1 41  1  0
  4 42  1  1
  5 43  1  0
  5 44  1  0
  7 45  1  0
  8 46  1  0
  9 47  1  0
 10 48  1  0
 11 49  1  0
 14 50  1  0
 15 51  1  0
 17 52  1  0
 18 53  1  0
 20 54  1  0
 21 55  1  0
 23 56  1  0
 24 57  1  0
 27 58  1  0
 27 59  1  0
 29 60  1  0
 30 61  1  0
 31 62  1  0
 32 63  1  0
 33 64  1  0
 36 65  1  0
 37 66  1  0
 38 67  1  0
 39 68  1  0
M  END
$$$$
[H]c1nc(N([H])c2c([H])c(OC([H])([H])[H])c(OC([H])([H])[H])c(OC([H])([H])[H])c2[H])nc(N([H])c2nc3c(c([H])c2[H])OC(C([H])([H])[H])(C([H])([H])[H])C(=O)N3[H])c1F
     RDKit          3D

 57 60  0  0  0  0  0  0  0  0999 V2000
   -5.6364    2.1181   -1.8630 C   0  0  0  0  0  0  0  0  0  0  0  0
   -5.8443    0.7587   -1.5880 O   0  0  0  0  0  0  0  0  0  0  0  0
   -4.8072    0.0010   -1.0783 C   0  0  0  0  0  0  0  0  0  0  0  0
   -3.5618    0.6012   -0.8432 C   0  0  0  0  0  0  0  0  0  0  0  0
   -2.5031   -0.0703   -0.3477 C   0  0  0  0  0  0  0  0  0  0  0  0
   -1.2316    0.4626   -0.0655 N   0  0  0  0  0  0  0  0  0  0  0  0
   -0.9067    1.8244    0.0656 C   0  0  0  0  0  0  0  0  0  0  0  0
   -1.7494    2.8585   -0.0431 N   0  0  0  0  0  0  0  0  0  0  0  0
   -1.4116    4.1432    0.0863 C   0  0  0  0  0  0  0  0  0  0  0  0
   -0.1125    4.4539    0.3502 C   0  0  0  0  0  0  0  0  0  0  0  0
    0.3587    5.6995    0.5032 F   0  0  0  0  0  0  0  0  0  0  0  0
    0.8217    3.4140    0.4762 C   0  0  0  0  0  0  0  0  0  0  0  0
    2.1801    3.7060    0.7505 N   0  0  0  0  0  0  0  0  0  0  0  0
    3.1050    2.6399    0.8733 C   0  0  0  0  0  0  0  0  0  0  0  0
    4.4571    2.8965    1.1446 C   0  0  0  0  0  0  0  0  0  0  0  0
    5.3443    1.8517    1.2613 C   0  0  0  0  0  0  0  0  0  0  0  0
    4.9285    0.5481    1.1161 C   0  0  0  0  0  0  0  0  0  0  0  0
    5.7961   -0.5293    1.2273 O   0  0  0  0  0  0  0  0  0  0  0  0
    5.5066   -1.7939    0.6515 C   0  0  0  0  0  0  0  0  0  0  0  0
    6.2846   -2.8749    1.3459 C   0  0  0  0  0  0  0  0  0  0  0  0
    5.8127   -1.7705   -0.8228 C   0  0  0  0  0  0  0  0  0  0  0  0
    4.0556   -2.1122    0.8177 C   0  0  0  0  0  0  0  0  0  0  0  0
    3.6763   -3.3008    1.0572 O   0  0  0  0  0  0  0  0  0  0  0  0
    3.1427   -1.0383    0.6962 N   0  0  0  0  0  0  0  0  0  0  0  0
    3.5828    0.3027    0.8467 C   0  0  0  0  0  0  0  0  0  0  0  0
    2.7547    1.3550    0.7416 N   0  0  0  0  0  0  0  0  0  0  0  0
    0.3826    2.1601    0.3289 N   0  0  0  0  0  0  0  0  0  0  0  0
   -2.7045   -1.4372   -0.0691 C   0  0  0  0  0  0  0  0  0  0  0  0
   -3.9082   -2.0549   -0.2874 C   0  0  0  0  0  0  0  0  0  0  0  0
   -4.0666   -3.3859   -0.0045 O   0  0  0  0  0  0  0  0  0  0  0  0
   -2.9762   -4.1177    0.5153 C   0  0  0  0  0  0  0  0  0  0  0  0
   -4.9761   -1.3425   -0.7952 C   0  0  0  0  0  0  0  0  0  0  0  0
   -6.2188   -1.9257   -1.0338 O   0  0  0  0  0  0  0  0  0  0  0  0
   -7.1743   -1.9137    0.0186 C   0  0  0  0  0  0  0  0  0  0  0  0
   -4.7813    2.3111   -2.5387 H   0  0  0  0  0  0  0  0  0  0  0  0
   -5.4850    2.7232   -0.9417 H   0  0  0  0  0  0  0  0  0  0  0  0
   -6.5386    2.5082   -2.4098 H   0  0  0  0  0  0  0  0  0  0  0  0
   -3.4970    1.6360   -1.0973 H   0  0  0  0  0  0  0  0  0  0  0  0
   -0.4103   -0.2136    0.0641 H   0  0  0  0  0  0  0  0  0  0  0  0
   -2.1604    4.9024   -0.0184 H   0  0  0  0  0  0  0  0  0  0  0  0
    2.4712    4.6872    0.8556 H   0  0  0  0  0  0  0  0  0  0  0  0
    4.7318    3.9285    1.2492 H   0  0  0  0  0  0  0  0  0  0  0  0
    6.3943    2.0780    1.4734 H   0  0  0  0  0  0  0  0  0  0  0  0
    5.7812   -3.1588    2.2953 H   0  0  0  0  0  0  0  0  0  0  0  0
    7.3278   -2.5920    1.5737 H   0  0  0  0  0  0  0  0  0  0  0  0
    6.3119   -3.7970    0.7168 H   0  0  0  0  0  0  0  0  0  0  0  0
    5.5475   -2.7321   -1.2838 H   0  0  0  0  0  0  0  0  0  0  0  0
    5.2428   -0.9509   -1.3072 H   0  0  0  0  0  0  0  0  0  0  0  0
    6.8942   -1.5474   -0.9277 H   0  0  0  0  0  0  0  0  0  0  0  0
    2.1474   -1.2464    0.4955 H   0  0  0  0  0  0  0  0  0  0  0  0
   -1.8577   -2.0119    0.3366 H   0  0  0  0  0  0  0  0  0  0  0  0
   -2.2185   -4.1935   -0.2936 H   0  0  0  0  0  0  0  0  0  0  0  0
   -3.3828   -5.1246    0.7905 H   0  0  0  0  0  0  0  0  0  0  0  0
   -2.5554   -3.6060    1.4036 H   0  0  0  0  0  0  0  0  0  0  0  0
   -7.4919   -2.9486    0.2973 H   0  0  0  0  0  0  0  0  0  0  0  0
   -8.0902   -1.3564   -0.3279 H   0  0  0  0  0  0  0  0  0  0  0  0
   -6.7818   -1.4227    0.9319 H   0  0  0  0  0  0  0  0  0  0  0  0
  1  2  1  0
  2  3  1  0
  3  4  2  0
  4  5  1  0
  5  6  1  0
  6  7  1  0
  7  8  2  0
  8  9  1  0
  9 10  2  0
 10 11  1  0
 10 12  1  0
 12 13  1  0
 13 14  1  0
 14 15  2  0
 15 16  1  0
 16 17  2  0
 17 18  1  0
 18 19  1  0
 19 20  1  0
 19 21  1  0
 19 22  1  0
 22 23  2  0
 22 24  1  0
 24 25  1  0
 25 26  2  0
 12 27  2  0
  5 28  2  0
 28 29  1  0
 29 30  1  0
 30 31  1  0
 29 32  2  0
 32 33  1  0
 33 34  1  0
 32  3  1  0
 27  7  1  0
 26 14  1  0
 25 17  1  0
  1 35  1  0
  1 36  1  0
  1 37  1  0
  4 38  1  0
  6 39  1  0
  9 40  1  0
 13 41  1  0
 15 42  1  0
 16 43  1  0
 20 44  1  0
 20 45  1  0
 20 46  1  0
 21 47  1  0
 21 48  1  0
 21 49  1  0
 24 50  1  0
 28 51  1  0
 31 52  1  0
 31 53  1  0
 31 54  1  0
 34 55  1  0
 34 56  1  0
 34 57  1  0
M  END
$$$$
[H]Oc1c([H])c([H])c2c3c1O[C@@]1([H])C(=O)C([H])([H])C([H])([H])[C@@]4(N([H])C(=O)/C([H])=C(\[H])c5c([H])c([H])c(Cl)c([H])c5[H])[C@]([H])(N(C([H])([H])C5([H])C([H])([H])C5([H])[H])C([H])([H])C([H])([H])[C@@]341)C2([H])[H]
     RDKit          3D

 65 71  0  0  0  0  0  0  0  0999 V2000
   -4.0532    5.1588   -1.4693 O   0  0  0  0  0  0  0  0  0  0  0  0
   -3.8301    3.9628   -0.8369 C   0  0  0  0  0  0  0  0  0  0  0  0
   -4.7769    3.3874    0.0144 C   0  0  0  0  0  0  0  0  0  0  0  0
   -4.5364    2.1734    0.6484 C   0  0  0  0  0  0  0  0  0  0  0  0
   -3.3390    1.5593    0.4108 C   0  0  0  0  0  0  0  0  0  0  0  0
   -3.0034    0.2769    1.0674 C   0  0  0  0  0  0  0  0  0  0  0  0
   -1.6113   -0.2222    0.8071 C   0  0  1  0  0  0  0  0  0  0  0  0
   -1.5303   -1.2225   -0.2214 N   0  0  0  0  0  0  0  0  0  0  0  0
   -2.3124   -2.3701    0.1673 C   0  0  0  0  0  0  0  0  0  0  0  0
   -2.0296   -3.6078   -0.6848 C   0  0  0  0  0  0  0  0  0  0  0  0
   -0.6120   -4.1554   -0.6486 C   0  0  0  0  0  0  0  0  0  0  0  0
   -1.6990   -4.8438    0.0954 C   0  0  0  0  0  0  0  0  0  0  0  0
   -2.0626   -0.6867   -1.4760 C   0  0  0  0  0  0  0  0  0  0  0  0
   -1.3954    0.5981   -1.8509 C   0  0  0  0  0  0  0  0  0  0  0  0
   -1.1225    1.5301   -0.7386 C   0  0  1  0  0  0  0  0  0  0  0  0
   -0.4196    2.7790   -1.1621 C   0  0  1  0  0  0  0  0  0  0  0  0
   -1.4716    3.5317   -1.7947 O   0  0  0  0  0  0  0  0  0  0  0  0
   -2.6226    3.3093   -1.0560 C   0  0  0  0  0  0  0  0  0  0  0  0
   -2.4625    2.1394   -0.4078 C   0  0  0  0  0  0  0  0  0  0  0  0
   -0.0978    3.6036    0.0614 C   0  0  0  0  0  0  0  0  0  0  0  0
    0.6272    4.5648   -0.0650 O   0  0  0  0  0  0  0  0  0  0  0  0
   -0.6412    3.2690    1.3881 C   0  0  0  0  0  0  0  0  0  0  0  0
   -0.8079    1.8505    1.7105 C   0  0  0  0  0  0  0  0  0  0  0  0
   -0.6300    0.8799    0.5075 C   0  0  1  0  0  0  0  0  0  0  0  0
    0.7179    0.4478    0.5232 N   0  0  0  0  0  0  0  0  0  0  0  0
    1.5500   -0.4184   -0.1614 C   0  0  0  0  0  0  0  0  0  0  0  0
    1.2428   -1.1241   -1.1132 O   0  0  0  0  0  0  0  0  0  0  0  0
    2.9675   -0.5417    0.2621 C   0  0  0  0  0  0  0  0  0  0  0  0
    3.7820   -1.3474   -0.3584 C   0  0  0  0  0  0  0  0  0  0  0  0
    5.2056   -1.5291   -0.0008 C   0  0  0  0  0  0  0  0  0  0  0  0
    5.7858   -0.8681    1.0307 C   0  0  0  0  0  0  0  0  0  0  0  0
    7.1387   -1.0978    1.2960 C   0  0  0  0  0  0  0  0  0  0  0  0
    7.8705   -1.9742    0.5323 C   0  0  0  0  0  0  0  0  0  0  0  0
    9.5814   -2.2517    0.8823 Cl  0  0  0  0  0  0  0  0  0  0  0  0
    7.2429   -2.6271   -0.5079 C   0  0  0  0  0  0  0  0  0  0  0  0
    5.9174   -2.4324   -0.8050 C   0  0  0  0  0  0  0  0  0  0  0  0
   -4.9337    5.6205   -1.3001 H   0  0  0  0  0  0  0  0  0  0  0  0
   -5.7207    3.8895    0.1918 H   0  0  0  0  0  0  0  0  0  0  0  0
   -5.3042    1.7518    1.3134 H   0  0  0  0  0  0  0  0  0  0  0  0
   -3.7278   -0.4471    0.6733 H   0  0  0  0  0  0  0  0  0  0  0  0
   -3.2277    0.3236    2.1738 H   0  0  0  0  0  0  0  0  0  0  0  0
   -1.2488   -0.7038    1.7522 H   0  0  0  0  0  0  0  0  0  0  0  0
   -2.1354   -2.6665    1.2192 H   0  0  0  0  0  0  0  0  0  0  0  0
   -3.4076   -2.1827    0.0503 H   0  0  0  0  0  0  0  0  0  0  0  0
   -2.5897   -3.6532   -1.6271 H   0  0  0  0  0  0  0  0  0  0  0  0
   -0.2109   -4.6167   -1.5501 H   0  0  0  0  0  0  0  0  0  0  0  0
    0.1008   -3.5613   -0.0066 H   0  0  0  0  0  0  0  0  0  0  0  0
   -1.6751   -4.7869    1.2163 H   0  0  0  0  0  0  0  0  0  0  0  0
   -2.1400   -5.7902   -0.2475 H   0  0  0  0  0  0  0  0  0  0  0  0
   -3.1499   -0.6092   -1.3675 H   0  0  0  0  0  0  0  0  0  0  0  0
   -1.8417   -1.4322   -2.2518 H   0  0  0  0  0  0  0  0  0  0  0  0
   -0.5249    0.5193   -2.5198 H   0  0  0  0  0  0  0  0  0  0  0  0
   -2.1666    1.1234   -2.5160 H   0  0  0  0  0  0  0  0  0  0  0  0
    0.4292    2.6507   -1.8282 H   0  0  0  0  0  0  0  0  0  0  0  0
    0.0665    3.7428    2.1440 H   0  0  0  0  0  0  0  0  0  0  0  0
   -1.5680    3.9125    1.5214 H   0  0  0  0  0  0  0  0  0  0  0  0
   -1.6989    1.6463    2.2938 H   0  0  0  0  0  0  0  0  0  0  0  0
    0.0389    1.5392    2.4054 H   0  0  0  0  0  0  0  0  0  0  0  0
    1.3458    0.9507    1.3426 H   0  0  0  0  0  0  0  0  0  0  0  0
    3.3025    0.0436    1.0861 H   0  0  0  0  0  0  0  0  0  0  0  0
    3.3634   -1.9201   -1.1998 H   0  0  0  0  0  0  0  0  0  0  0  0
    5.2137   -0.1768    1.6331 H   0  0  0  0  0  0  0  0  0  0  0  0
    7.6049   -0.5781    2.1122 H   0  0  0  0  0  0  0  0  0  0  0  0
    7.8017   -3.3289   -1.1272 H   0  0  0  0  0  0  0  0  0  0  0  0
    5.4415   -2.9614   -1.6335 H   0  0  0  0  0  0  0  0  0  0  0  0
  1  2  1  0
  2  3  2  0
  3  4  1  0
  4  5  2  0
  5  6  1  0
  6  7  1  0
  7  8  1  0
  8  9  1  0
  9 10  1  0
 10 11  1  0
 11 12  1  0
  8 13  1  0
 13 14  1  0
 15 14  1  6
 15 16  1  0
 16 17  1  0
 17 18  1  0
 18 19  2  0
 16 20  1  0
 20 21  2  0
 20 22  1  0
 22 23  1  0
 23 24  1  0
 24 25  1  6
 25 26  1  0
 26 27  2  0
 26 28  1  0
 28 29  2  0
 29 30  1  0
 30 31  2  0
 31 32  1  0
 32 33  2  0
 33 34  1  0
 33 35  1  0
 35 36  2  0
 18  2  1  0
 36 30  1  0
 19  5  1  0
 24  7  1  0
 12 10  1  0
 19 15  1  0
 24 15  1  0
  1 37  1  0
  3 38  1  0
  4 39  1  0
  6 40  1  0
  6 41  1  0
  7 42  1  1
  9 43  1  0
  9 44  1  0
 10 45  1  0
 11 46  1  0
 11 47  1  0
 12 48  1  0
 12 49  1  0
 13 50  1  0
 13 51  1  0
 14 52  1  0
 14 53  1  0
 16 54  1  6
 22 55  1  0
 22 56  1  0
 23 57  1  0
 23 58  1  0
 25 59  1  0
 28 60  1  0
 29 61  1  0
 31 62  1  0
 32 63  1  0
 35 64  1  0
 36 65  1  0
M  END
$$$$
[H]O[C@@]1([H])[C@]([H])(O[H])[C@@]([H])(C([H])([H])OP(=O)(O[H])OP(=O)(O[H])O[H])O[C@@]1([H])n1c([H])nc2c(N([H])[H])nc([H])nc21
     RDKit          3D

 42 44  0  0  0  0  0  0  0  0999 V2000
    0.1570   -3.3429    0.4943 O   0  0  0  0  0  0  0  0  0  0  0  0
    0.2979   -2.1797   -0.2923 C   0  0  2  0  0  0  0  0  0  0  0  0
    0.9292   -1.0830    0.4956 C   0  0  1  0  0  0  0  0  0  0  0  0
    2.0896   -0.5268   -0.3006 C   0  0  0  0  0  0  0  0  0  0  0  0
    2.6874    0.5570    0.3761 O   0  0  0  0  0  0  0  0  0  0  0  0
    3.9576    1.0819   -0.6098 P   0  0  0  0  0  0  0  0  0  0  0  0
    3.3065    2.3074   -1.6129 O   0  0  0  0  0  0  0  0  0  0  0  0
    4.4493   -0.0573   -1.4408 O   0  0  0  0  0  0  0  0  0  0  0  0
    5.1850    1.8066    0.2918 O   0  0  0  0  0  0  0  0  0  0  0  0
    6.0830    0.6776    1.1597 P   0  0  0  0  0  0  0  0  0  0  0  0
    7.2371   -0.0985    0.1987 O   0  0  0  0  0  0  0  0  0  0  0  0
    5.1038   -0.4343    1.9574 O   0  0  0  0  0  0  0  0  0  0  0  0
    6.8544    1.4518    2.2240 O   0  0  0  0  0  0  0  0  0  0  0  0
    0.0032   -0.0700    0.6591 O   0  0  0  0  0  0  0  0  0  0  0  0
   -1.2586   -0.6358    0.5296 C   0  0  2  0  0  0  0  0  0  0  0  0
   -1.0685   -1.6456   -0.6075 C   0  0  1  0  0  0  0  0  0  0  0  0
   -1.1204   -1.0090   -1.8423 O   0  0  0  0  0  0  0  0  0  0  0  0
   -2.2537    0.3521    0.1696 N   0  0  0  0  0  0  0  0  0  0  0  0
   -2.0883    1.4546   -0.5677 C   0  0  0  0  0  0  0  0  0  0  0  0
   -3.2676    2.0953   -0.6608 N   0  0  0  0  0  0  0  0  0  0  0  0
   -4.2037    1.4044    0.0200 C   0  0  0  0  0  0  0  0  0  0  0  0
   -5.5492    1.5911    0.2563 C   0  0  0  0  0  0  0  0  0  0  0  0
   -6.1852    2.7167   -0.2848 N   0  0  0  0  0  0  0  0  0  0  0  0
   -6.1669    0.6770    0.9939 N   0  0  0  0  0  0  0  0  0  0  0  0
   -5.5424   -0.3940    1.5036 C   0  0  0  0  0  0  0  0  0  0  0  0
   -4.2447   -0.5736    1.2755 N   0  0  0  0  0  0  0  0  0  0  0  0
   -3.5665    0.3122    0.5398 C   0  0  0  0  0  0  0  0  0  0  0  0
    0.1002   -3.0684    1.4574 H   0  0  0  0  0  0  0  0  0  0  0  0
    0.8897   -2.4296   -1.2150 H   0  0  0  0  0  0  0  0  0  0  0  0
    1.2681   -1.3820    1.5083 H   0  0  0  0  0  0  0  0  0  0  0  0
    2.8735   -1.2751   -0.4985 H   0  0  0  0  0  0  0  0  0  0  0  0
    1.7395   -0.1167   -1.2638 H   0  0  0  0  0  0  0  0  0  0  0  0
    2.7333    1.8900   -2.3007 H   0  0  0  0  0  0  0  0  0  0  0  0
    6.9880   -1.0495    0.0174 H   0  0  0  0  0  0  0  0  0  0  0  0
    5.3829   -1.3317    1.6860 H   0  0  0  0  0  0  0  0  0  0  0  0
   -1.5463   -1.2015    1.4361 H   0  0  0  0  0  0  0  0  0  0  0  0
   -1.8612   -2.4190   -0.5920 H   0  0  0  0  0  0  0  0  0  0  0  0
   -0.2575   -0.9956   -2.3106 H   0  0  0  0  0  0  0  0  0  0  0  0
   -1.1686    1.7783   -1.0132 H   0  0  0  0  0  0  0  0  0  0  0  0
   -6.3134    3.5996    0.2554 H   0  0  0  0  0  0  0  0  0  0  0  0
   -6.5485    2.6848   -1.2614 H   0  0  0  0  0  0  0  0  0  0  0  0
   -6.1050   -1.1188    2.1076 H   0  0  0  0  0  0  0  0  0  0  0  0
  1  2  1  0
  2  3  1  0
  3  4  1  0
  4  5  1  0
  5  6  1  0
  6  7  1  0
  6  8  2  0
  6  9  1  0
  9 10  1  0
 10 11  1  0
 10 12  1  0
 10 13  2  0
  3 14  1  0
 14 15  1  0
 15 16  1  0
 16 17  1  0
 15 18  1  0
 18 19  1  0
 19 20  2  0
 20 21  1  0
 21 22  2  0
 22 23  1  0
 22 24  1  0
 24 25  2  0
 25 26  1  0
 26 27  2  0
 16  2  1  0
 27 18  1  0
 27 21  1  0
  1 28  1  0
  2 29  1  6
  3 30  1  1
  4 31  1  0
  4 32  1  0
  7 33  1  0
 11 34  1  0
 12 35  1  0
 15 36  1  1
 16 37  1  6
 17 38  1  0
 19 39  1  0
 23 40  1  0
 23 41  1  0
 25 42  1  0
M  END
$$$$
[H]c1c([H])c(C([H])([H])[H])c([H])c([H])c1C(=O)O[C@]1([H])[C@@]([H])(OC([H])([H])[H])[C@@]([H])(C([H])([H])[H])O[C@]([H])(C([H])([H])[H])[C@@]1([H])OC(=O)c1c([H])c([H])c(C([H])([H])[H])c([H])c1[H]
     RDKit          3D

 58 60  0  0  0  0  0  0  0  0999 V2000
   -0.7377   -1.1916    3.4549 C   0  0  0  0  0  0  0  0  0  0  0  0
   -0.8974   -1.3356    2.1112 O   0  0  0  0  0  0  0  0  0  0  0  0
    0.1666   -1.5052    1.3292 C   0  0  2  0  0  0  0  0  0  0  0  0
    0.3371   -0.3121    0.3851 C   0  0  1  0  0  0  0  0  0  0  0  0
    1.7138   -0.1574    0.0936 O   0  0  0  0  0  0  0  0  0  0  0  0
    2.4468    0.9658    0.4678 C   0  0  0  0  0  0  0  0  0  0  0  0
    1.8051    1.8510    1.0905 O   0  0  0  0  0  0  0  0  0  0  0  0
    3.8632    1.0986    0.1547 C   0  0  0  0  0  0  0  0  0  0  0  0
    4.5388    2.2315    0.5486 C   0  0  0  0  0  0  0  0  0  0  0  0
    5.8991    2.3932    0.2655 C   0  0  0  0  0  0  0  0  0  0  0  0
    6.5892    1.4169   -0.4157 C   0  0  0  0  0  0  0  0  0  0  0  0
    8.0504    1.5926   -0.7188 C   0  0  0  0  0  0  0  0  0  0  0  0
    5.9203    0.2754   -0.8160 C   0  0  0  0  0  0  0  0  0  0  0  0
    4.5718    0.1357   -0.5248 C   0  0  0  0  0  0  0  0  0  0  0  0
   -0.4962   -0.4525   -0.8516 C   0  0  2  0  0  0  0  0  0  0  0  0
   -1.8594   -0.1987   -0.5400 O   0  0  0  0  0  0  0  0  0  0  0  0
   -2.5846    0.8382   -1.1086 C   0  0  0  0  0  0  0  0  0  0  0  0
   -1.9703    1.5628   -1.9323 O   0  0  0  0  0  0  0  0  0  0  0  0
   -3.9779    1.0995   -0.7917 C   0  0  0  0  0  0  0  0  0  0  0  0
   -4.6225    2.1485   -1.4012 C   0  0  0  0  0  0  0  0  0  0  0  0
   -5.9473    2.4580   -1.1496 C   0  0  0  0  0  0  0  0  0  0  0  0
   -6.6468    1.6907   -0.2585 C   0  0  0  0  0  0  0  0  0  0  0  0
   -8.0635    1.9885    0.0376 C   0  0  0  0  0  0  0  0  0  0  0  0
   -6.0240    0.6290    0.3696 C   0  0  0  0  0  0  0  0  0  0  0  0
   -4.6860    0.3326    0.1023 C   0  0  0  0  0  0  0  0  0  0  0  0
   -0.4262   -1.8067   -1.4856 C   0  0  1  0  0  0  0  0  0  0  0  0
    0.8321   -2.0382   -2.2783 C   0  0  0  0  0  0  0  0  0  0  0  0
   -0.6815   -2.7687   -0.5427 O   0  0  0  0  0  0  0  0  0  0  0  0
    0.2490   -2.7398    0.4892 C   0  0  2  0  0  0  0  0  0  0  0  0
    0.2325   -4.0095    1.3050 C   0  0  0  0  0  0  0  0  0  0  0  0
   -1.6432   -1.0569    4.0366 H   0  0  0  0  0  0  0  0  0  0  0  0
   -0.1529   -2.0114    3.9346 H   0  0  0  0  0  0  0  0  0  0  0  0
   -0.1159   -0.2688    3.6118 H   0  0  0  0  0  0  0  0  0  0  0  0
    1.0859   -1.4992    1.9685 H   0  0  0  0  0  0  0  0  0  0  0  0
   -0.0497    0.5773    0.9417 H   0  0  0  0  0  0  0  0  0  0  0  0
    3.9859    2.9914    1.0831 H   0  0  0  0  0  0  0  0  0  0  0  0
    6.4289    3.2786    0.5730 H   0  0  0  0  0  0  0  0  0  0  0  0
    8.4411    2.4620   -0.1903 H   0  0  0  0  0  0  0  0  0  0  0  0
    8.5677    0.6583   -0.3527 H   0  0  0  0  0  0  0  0  0  0  0  0
    8.1411    1.6459   -1.8053 H   0  0  0  0  0  0  0  0  0  0  0  0
    6.4744   -0.4663   -1.3415 H   0  0  0  0  0  0  0  0  0  0  0  0
    4.0629   -0.7557   -0.8409 H   0  0  0  0  0  0  0  0  0  0  0  0
   -0.1049    0.2809   -1.5975 H   0  0  0  0  0  0  0  0  0  0  0  0
   -4.0833    2.7607   -2.1049 H   0  0  0  0  0  0  0  0  0  0  0  0
   -6.4637    3.2808   -1.6234 H   0  0  0  0  0  0  0  0  0  0  0  0
   -8.4548    2.7062   -0.7186 H   0  0  0  0  0  0  0  0  0  0  0  0
   -8.1518    2.4681    1.0239 H   0  0  0  0  0  0  0  0  0  0  0  0
   -8.6546    1.0450   -0.0337 H   0  0  0  0  0  0  0  0  0  0  0  0
   -6.5984    0.0453    1.0636 H   0  0  0  0  0  0  0  0  0  0  0  0
   -4.2498   -0.5006    0.6152 H   0  0  0  0  0  0  0  0  0  0  0  0
   -1.2743   -1.8531   -2.2313 H   0  0  0  0  0  0  0  0  0  0  0  0
    0.7735   -1.3446   -3.1676 H   0  0  0  0  0  0  0  0  0  0  0  0
    1.7521   -1.7847   -1.7575 H   0  0  0  0  0  0  0  0  0  0  0  0
    0.8326   -3.0560   -2.6635 H   0  0  0  0  0  0  0  0  0  0  0  0
    1.2458   -2.7112   -0.0122 H   0  0  0  0  0  0  0  0  0  0  0  0
    0.5961   -3.8768    2.3253 H   0  0  0  0  0  0  0  0  0  0  0  0
    0.8436   -4.8205    0.8404 H   0  0  0  0  0  0  0  0  0  0  0  0
   -0.8290   -4.3873    1.2632 H   0  0  0  0  0  0  0  0  0  0  0  0
  1  2  1  0
  2  3  1  0
  3  4  1  0
  4  5  1  0
  5  6  1  0
  6  7  2  0
  6  8  1  0
  8  9  2  0
  9 10  1  0
 10 11  2  0
 11 12  1  0
 11 13  1  0
 13 14  2  0
  4 15  1  0
 15 16  1  0
 16 17  1  0
 17 18  2  0
 17 19  1  0
 19 20  2  0
 20 21  1  0
 21 22  2  0
 22 23  1  0
 22 24  1  0
 24 25  2  0
 15 26  1  0
 26 27  1  0
 26 28  1  0
 28 29  1  0
 29 30  1  0
 29  3  1  0
 14  8  1  0
 25 19  1  0
  1 31  1  0
  1 32  1  0
  1 33  1  0
  3 34  1  1
  4 35  1  1
  9 36  1  0
 10 37  1  0
 12 38  1  0
 12 39  1  0
 12 40  1  0
 13 41  1  0
 14 42  1  0
 15 43  1  6
 20 44  1  0
 21 45  1  0
 23 46  1  0
 23 47  1  0
 23 48  1  0
 24 49  1  0
 25 50  1  0
 26 51  1  6
 27 52  1  0
 27 53  1  0
 27 54  1  0
 29 55  1  6
 30 56  1  0
 30 57  1  0
 30 58  1  0
M  END
$$$$
[H]c1c([H])c([H])c(C2=NC([H])([H])c3nnc(C([H])([H])[H])n3-c3c([H])c([H])c(Cl)c([H])c32)c(F)c1[H]
     RDKit          3D

 35 38  0  0  0  0  0  0  0  0999 V2000
    4.0270   -0.4692   -1.1839 C   0  0  0  0  0  0  0  0  0  0  0  0
    3.3922   -0.7519    0.1170 C   0  0  0  0  0  0  0  0  0  0  0  0
    3.8307   -1.6321    1.0732 N   0  0  0  0  0  0  0  0  0  0  0  0
    2.9570   -1.6754    2.0895 N   0  0  0  0  0  0  0  0  0  0  0  0
    1.9545   -0.8549    1.8421 C   0  0  0  0  0  0  0  0  0  0  0  0
    0.7100   -0.5829    2.6614 C   0  0  0  0  0  0  0  0  0  0  0  0
   -0.5009   -0.7549    1.8723 N   0  0  0  0  0  0  0  0  0  0  0  0
   -0.7983   -0.2625    0.6917 C   0  0  0  0  0  0  0  0  0  0  0  0
   -2.0770   -0.6100    0.1441 C   0  0  0  0  0  0  0  0  0  0  0  0
   -2.5232   -0.3624   -1.0997 C   0  0  0  0  0  0  0  0  0  0  0  0
   -3.8063   -0.6607   -1.4881 C   0  0  0  0  0  0  0  0  0  0  0  0
   -4.6913   -1.2420   -0.5804 C   0  0  0  0  0  0  0  0  0  0  0  0
   -4.2557   -1.5071    0.6981 C   0  0  0  0  0  0  0  0  0  0  0  0
   -2.9818   -1.2027    1.0624 C   0  0  0  0  0  0  0  0  0  0  0  0
   -2.5832   -1.4818    2.3473 F   0  0  0  0  0  0  0  0  0  0  0  0
    0.0684    0.6879    0.0221 C   0  0  0  0  0  0  0  0  0  0  0  0
   -0.6052    1.7066   -0.5932 C   0  0  0  0  0  0  0  0  0  0  0  0
    0.1081    2.6783   -1.2586 C   0  0  0  0  0  0  0  0  0  0  0  0
   -0.8153    3.9497   -2.0421 Cl  0  0  0  0  0  0  0  0  0  0  0  0
    1.5081    2.6358   -1.3050 C   0  0  0  0  0  0  0  0  0  0  0  0
    2.2174    1.6063   -0.6767 C   0  0  0  0  0  0  0  0  0  0  0  0
    1.4563    0.6790   -0.0431 C   0  0  0  0  0  0  0  0  0  0  0  0
    2.2566   -0.2926    0.6081 N   0  0  0  0  0  0  0  0  0  0  0  0
    4.9477    0.1196   -1.1722 H   0  0  0  0  0  0  0  0  0  0  0  0
    3.3318   -0.2868   -2.0279 H   0  0  0  0  0  0  0  0  0  0  0  0
    4.4372   -1.4840   -1.5189 H   0  0  0  0  0  0  0  0  0  0  0  0
    0.6917   -1.2693    3.5013 H   0  0  0  0  0  0  0  0  0  0  0  0
    0.7723    0.4587    3.0126 H   0  0  0  0  0  0  0  0  0  0  0  0
   -1.8848    0.0276   -1.8716 H   0  0  0  0  0  0  0  0  0  0  0  0
   -4.1526   -0.4506   -2.5022 H   0  0  0  0  0  0  0  0  0  0  0  0
   -5.7035   -1.4837   -0.8663 H   0  0  0  0  0  0  0  0  0  0  0  0
   -4.9194   -1.9656    1.4460 H   0  0  0  0  0  0  0  0  0  0  0  0
   -1.6811    1.7393   -0.4811 H   0  0  0  0  0  0  0  0  0  0  0  0
    2.0507    3.3886   -1.8205 H   0  0  0  0  0  0  0  0  0  0  0  0
    3.2620    1.6056   -0.6576 H   0  0  0  0  0  0  0  0  0  0  0  0
  1  2  1  0
  2  3  2  0
  3  4  1  0
  4  5  2  0
  5  6  1  0
  6  7  1  0
  7  8  2  0
  8  9  1  0
  9 10  2  0
 10 11  1  0
 11 12  2  0
 12 13  1  0
 13 14  2  0
 14 15  1  0
  8 16  1  0
 16 17  2  0
 17 18  1  0
 18 19  1  0
 18 20  2  0
 20 21  1  0
 21 22  2  0
 22 23  1  0
 23  2  1  0
 23  5  1  0
 14  9  1  0
 22 16  1  0
  1 24  1  0
  1 25  1  0
  1 26  1  0
  6 27  1  0
  6 28  1  0
 10 29  1  0
 11 30  1  0
 12 31  1  0
 13 32  1  0
 17 33  1  0
 20 34  1  0
 21 35  1  0
M  END
$$$$
[H]N=C(N([H])[H])N([H])C([H])([H])C([H])([H])C([H])([H])[C@@]1([H])C(=O)N([H])[C@@]([H])(C([H])([H])c2c([H])nc([H])n2[H])C(=O)N([H])[C@@]([H])(C([H])([H])c2c([H])nc([H])n2[H])C(=O)N([H])[C@@]([H])(C([H])([H])c2c([H])nc([H])n2[H])C(=O)N([H])[C@@]([H])(C([H])([H])C([H])([H])C([H])([H])C([H])([H])N([H])[H])C(=O)N1[H]
     RDKit          3D

 95 98  0  0  0  0  0  0  0  0999 V2000
    6.9041   -1.4584   -0.7982 N   0  0  0  0  0  0  0  0  0  0  0  0
    6.0059   -1.3335   -1.8983 C   0  0  0  0  0  0  0  0  0  0  0  0
    5.8134   -2.3535   -2.6488 N   0  0  0  0  0  0  0  0  0  0  0  0
    5.3615   -0.0815   -2.1201 N   0  0  0  0  0  0  0  0  0  0  0  0
    5.3269    0.9522   -1.1130 C   0  0  0  0  0  0  0  0  0  0  0  0
    4.4785    0.5985    0.0848 C   0  0  0  0  0  0  0  0  0  0  0  0
    3.0543    0.3692   -0.3447 C   0  0  0  0  0  0  0  0  0  0  0  0
    2.1734   -0.0045    0.8584 C   0  0  2  0  0  0  0  0  0  0  0  0
    2.1852    1.0360    1.8628 N   0  0  0  0  0  0  0  0  0  0  0  0
    1.4114    2.1955    1.8827 C   0  0  0  0  0  0  0  0  0  0  0  0
    1.7320    3.0689    2.7395 O   0  0  0  0  0  0  0  0  0  0  0  0
    0.2529    2.4729    0.9809 C   0  0  2  0  0  0  0  0  0  0  0  0
    0.3502    3.9201    0.4958 C   0  0  0  0  0  0  0  0  0  0  0  0
    1.6197    4.1625   -0.2648 C   0  0  0  0  0  0  0  0  0  0  0  0
    1.6764    5.5792   -0.7203 C   0  0  0  0  0  0  0  0  0  0  0  0
    1.6450    6.5929    0.3857 C   0  0  0  0  0  0  0  0  0  0  0  0
    1.7094    7.9297   -0.2061 N   0  0  0  0  0  0  0  0  0  0  0  0
   -1.0158    2.2419    1.5774 N   0  0  0  0  0  0  0  0  0  0  0  0
   -2.0850    1.4459    1.0344 C   0  0  0  0  0  0  0  0  0  0  0  0
   -2.8268    0.9500    1.8987 O   0  0  0  0  0  0  0  0  0  0  0  0
   -2.2931    1.2318   -0.3891 C   0  0  2  0  0  0  0  0  0  0  0  0
   -3.1905    2.3338   -0.9043 C   0  0  0  0  0  0  0  0  0  0  0  0
   -4.5366    2.4280   -0.3767 C   0  0  0  0  0  0  0  0  0  0  0  0
   -5.3479    1.5289    0.2904 C   0  0  0  0  0  0  0  0  0  0  0  0
   -6.5241    2.1265    0.6143 N   0  0  0  0  0  0  0  0  0  0  0  0
   -6.4805    3.3709    0.1725 C   0  0  0  0  0  0  0  0  0  0  0  0
   -5.3068    3.5671   -0.4192 N   0  0  0  0  0  0  0  0  0  0  0  0
   -2.6741   -0.0350   -0.8903 N   0  0  0  0  0  0  0  0  0  0  0  0
   -2.2116   -1.3435   -0.8167 C   0  0  0  0  0  0  0  0  0  0  0  0
   -1.6822   -1.8542   -1.9252 O   0  0  0  0  0  0  0  0  0  0  0  0
   -2.1788   -2.3384    0.2694 C   0  0  2  0  0  0  0  0  0  0  0  0
   -3.5644   -2.5781    0.8836 C   0  0  0  0  0  0  0  0  0  0  0  0
   -4.5302   -3.0808   -0.0835 C   0  0  0  0  0  0  0  0  0  0  0  0
   -4.7619   -4.4194   -0.3411 C   0  0  0  0  0  0  0  0  0  0  0  0
   -5.7130   -4.5024   -1.2926 N   0  0  0  0  0  0  0  0  0  0  0  0
   -6.0655   -3.2540   -1.6200 C   0  0  0  0  0  0  0  0  0  0  0  0
   -5.3305   -2.3849   -0.8691 N   0  0  0  0  0  0  0  0  0  0  0  0
   -1.1335   -2.2030    1.2296 N   0  0  0  0  0  0  0  0  0  0  0  0
    0.0629   -2.8759    1.4230 C   0  0  0  0  0  0  0  0  0  0  0  0
    0.3622   -3.3036    2.6055 O   0  0  0  0  0  0  0  0  0  0  0  0
    1.1492   -3.2280    0.4798 C   0  0  2  0  0  0  0  0  0  0  0  0
    1.3712   -4.7245    0.5470 C   0  0  0  0  0  0  0  0  0  0  0  0
    0.2002   -5.5409    0.1827 C   0  0  0  0  0  0  0  0  0  0  0  0
   -0.7865   -6.0353    1.0115 C   0  0  0  0  0  0  0  0  0  0  0  0
   -1.6509   -6.7263    0.2532 N   0  0  0  0  0  0  0  0  0  0  0  0
   -1.2427   -6.6804   -1.0051 C   0  0  0  0  0  0  0  0  0  0  0  0
   -0.1225   -5.9671   -1.0719 N   0  0  0  0  0  0  0  0  0  0  0  0
    2.4030   -2.5779    0.8323 N   0  0  0  0  0  0  0  0  0  0  0  0
    2.6358   -1.3221    1.3769 C   0  0  0  0  0  0  0  0  0  0  0  0
    3.3296   -1.2208    2.4580 O   0  0  0  0  0  0  0  0  0  0  0  0
    7.8837   -1.1419   -0.9445 H   0  0  0  0  0  0  0  0  0  0  0  0
    6.5975   -1.8471    0.1120 H   0  0  0  0  0  0  0  0  0  0  0  0
    6.2670   -3.2662   -2.5104 H   0  0  0  0  0  0  0  0  0  0  0  0
    4.9086    0.0799   -3.0326 H   0  0  0  0  0  0  0  0  0  0  0  0
    6.3831    1.1452   -0.8036 H   0  0  0  0  0  0  0  0  0  0  0  0
    4.9841    1.8982   -1.5906 H   0  0  0  0  0  0  0  0  0  0  0  0
    4.5133    1.5175    0.7439 H   0  0  0  0  0  0  0  0  0  0  0  0
    4.9226   -0.2036    0.6664 H   0  0  0  0  0  0  0  0  0  0  0  0
    2.9824   -0.4496   -1.0699 H   0  0  0  0  0  0  0  0  0  0  0  0
    2.6561    1.2848   -0.8088 H   0  0  0  0  0  0  0  0  0  0  0  0
    1.1476   -0.0520    0.4461 H   0  0  0  0  0  0  0  0  0  0  0  0
    2.8753    0.8573    2.6581 H   0  0  0  0  0  0  0  0  0  0  0  0
    0.4596    1.8459    0.0671 H   0  0  0  0  0  0  0  0  0  0  0  0
    0.3806    4.5899    1.3883 H   0  0  0  0  0  0  0  0  0  0  0  0
   -0.5583    4.2180   -0.0611 H   0  0  0  0  0  0  0  0  0  0  0  0
    1.6865    3.5174   -1.1735 H   0  0  0  0  0  0  0  0  0  0  0  0
    2.4612    3.9743    0.4393 H   0  0  0  0  0  0  0  0  0  0  0  0
    2.6368    5.7292   -1.2775 H   0  0  0  0  0  0  0  0  0  0  0  0
    0.8519    5.8137   -1.4336 H   0  0  0  0  0  0  0  0  0  0  0  0
    0.7202    6.5597    0.9891 H   0  0  0  0  0  0  0  0  0  0  0  0
    2.5173    6.5154    1.0672 H   0  0  0  0  0  0  0  0  0  0  0  0
    2.4941    7.9837   -0.8993 H   0  0  0  0  0  0  0  0  0  0  0  0
    0.8177    8.2107   -0.6565 H   0  0  0  0  0  0  0  0  0  0  0  0
   -1.2076    2.6875    2.4987 H   0  0  0  0  0  0  0  0  0  0  0  0
   -1.2656    1.5484   -0.8409 H   0  0  0  0  0  0  0  0  0  0  0  0
   -3.2687    2.2959   -2.0324 H   0  0  0  0  0  0  0  0  0  0  0  0
   -2.7054    3.3475   -0.7483 H   0  0  0  0  0  0  0  0  0  0  0  0
   -5.1614    0.5188    0.5276 H   0  0  0  0  0  0  0  0  0  0  0  0
   -7.2869    4.1184    0.2806 H   0  0  0  0  0  0  0  0  0  0  0  0
   -4.9868    4.4417   -0.8592 H   0  0  0  0  0  0  0  0  0  0  0  0
   -3.5571    0.0318   -1.5337 H   0  0  0  0  0  0  0  0  0  0  0  0
   -1.9904   -3.3845   -0.1720 H   0  0  0  0  0  0  0  0  0  0  0  0
   -3.3578   -3.3027    1.7283 H   0  0  0  0  0  0  0  0  0  0  0  0
   -3.8592   -1.6432    1.3842 H   0  0  0  0  0  0  0  0  0  0  0  0
   -4.3077   -5.2871    0.0985 H   0  0  0  0  0  0  0  0  0  0  0  0
   -6.8019   -3.0158   -2.3499 H   0  0  0  0  0  0  0  0  0  0  0  0
   -5.4028   -1.3608   -0.9203 H   0  0  0  0  0  0  0  0  0  0  0  0
   -1.3262   -1.4263    1.9550 H   0  0  0  0  0  0  0  0  0  0  0  0
    0.8738   -3.0253   -0.5791 H   0  0  0  0  0  0  0  0  0  0  0  0
    1.6860   -5.0514    1.5620 H   0  0  0  0  0  0  0  0  0  0  0  0
    2.2289   -5.0033   -0.1194 H   0  0  0  0  0  0  0  0  0  0  0  0
   -0.8210   -5.8740    2.0919 H   0  0  0  0  0  0  0  0  0  0  0  0
   -1.7548   -7.1578   -1.8490 H   0  0  0  0  0  0  0  0  0  0  0  0
    0.4593   -5.7398   -1.9312 H   0  0  0  0  0  0  0  0  0  0  0  0
    3.2650   -3.1728    0.6367 H   0  0  0  0  0  0  0  0  0  0  0  0
  1  2  1  0
  2  3  2  3
  2  4  1  0
  4  5  1  0
  5  6  1  0
  6  7  1  0
  7  8  1  0
  8  9  1  0
  9 10  1  0
 10 11  2  0
 10 12  1  0
 12 13  1  0
 13 14  1  0
 14 15  1  0
 15 16  1  0
 16 17  1  0
 12 18  1  0
 18 19  1  0
 19 20  2  0
 19 21  1  0
 21 22  1  0
 22 23  1  0
 23 24  2  0
 24 25  1  0
 25 26  2  0
 26 27  1  0
 21 28  1  0
 28 29  1  0
 29 30  2  0
 29 31  1  0
 31 32  1  0
 32 33  1  0
 33 34  2  0
 34 35  1  0
 35 36  2  0
 36 37  1  0
 31 38  1  0
 38 39  1  0
 39 40  2  0
 39 41  1  0
 41 42  1  0
 42 43  1  0
 43 44  2  0
 44 45  1  0
 45 46  2  0
 46 47  1  0
 41 48  1  0
 48 49  1  0
 49 50  2  0
 49  8  1  0
 27 23  1  0
 37 33  1  0
 47 43  1  0
  1 51  1  0
  1 52  1  0
  3 53  1  0
  4 54  1  0
  5 55  1  0
  5 56  1  0
  6 57  1  0
  6 58  1  0
  7 59  1  0
  7 60  1  0
  8 61  1  6
  9 62  1  0
 12 63  1  6
 13 64  1  0
 13 65  1  0
 14 66  1  0
 14 67  1  0
 15 68  1  0
 15 69  1  0
 16 70  1  0
 16 71  1  0
 17 72  1  0
 17 73  1  0
 18 74  1  0
 21 75  1  6
 22 76  1  0
 22 77  1  0
 24 78  1  0
 26 79  1  0
 27 80  1  0
 28 81  1  0
 31 82  1  6
 32 83  1  0
 32 84  1  0
 34 85  1  0
 36 86  1  0
 37 87  1  0
 38 88  1  0
 41 89  1  6
 42 90  1  0
 42 91  1  0
 44 92  1  0
 46 93  1  0
 47 94  1  0
 48 95  1  0
M  END
$$$$
[H]ON([H])C(=O)C([H])([H])N(C([H])([H])c1c([H])c([H])c([N+](=O)[O-])c([H])c1[H])S(=O)(=O)c1c([H])c([H])c(N([H])C(=O)N([H])S(=O)(=O)c2c([H])c([H])c(Cl)c([H])c2[H])c([H])c1[H]
     RDKit          3D

 59 61  0  0  0  0  0  0  0  0999 V2000
   -6.4450   -3.7716    3.2074 O   0  0  0  0  0  0  0  0  0  0  0  0
   -5.5611   -2.8491    2.7220 N   0  0  0  0  0  0  0  0  0  0  0  0
   -5.3911   -2.6391    1.3277 C   0  0  0  0  0  0  0  0  0  0  0  0
   -6.0865   -3.3359    0.5470 O   0  0  0  0  0  0  0  0  0  0  0  0
   -4.4096   -1.6170    0.9029 C   0  0  0  0  0  0  0  0  0  0  0  0
   -4.2811   -1.4506   -0.4789 N   0  0  0  0  0  0  0  0  0  0  0  0
   -5.0303   -0.4817   -1.1511 C   0  0  0  0  0  0  0  0  0  0  0  0
   -4.4847    0.8983   -1.1228 C   0  0  0  0  0  0  0  0  0  0  0  0
   -5.0231    1.9085   -1.9139 C   0  0  0  0  0  0  0  0  0  0  0  0
   -4.5334    3.1890   -1.8919 C   0  0  0  0  0  0  0  0  0  0  0  0
   -3.4726    3.5405   -1.0765 C   0  0  0  0  0  0  0  0  0  0  0  0
   -2.9219    2.5517   -0.2816 C   0  0  0  0  0  0  0  0  0  0  0  0
   -3.4324    1.2722   -0.3220 C   0  0  0  0  0  0  0  0  0  0  0  0
   -2.9586    4.8671   -1.0452 N   0  0  0  0  0  0  0  0  0  0  0  0
   -1.9097    5.1591   -0.2154 O   0  0  0  0  0  0  0  0  0  0  0  0
   -3.4286    5.7740   -1.7487 O   0  0  0  0  0  0  0  0  0  0  0  0
   -3.1474   -2.3659   -1.3176 S   0  0  0  0  0  0  0  0  0  0  0  0
   -3.1827   -2.1031   -2.8160 O   0  0  0  0  0  0  0  0  0  0  0  0
   -3.4855   -3.8351   -1.0757 O   0  0  0  0  0  0  0  0  0  0  0  0
   -1.4882   -2.1080   -0.8326 C   0  0  0  0  0  0  0  0  0  0  0  0
   -0.6861   -1.2036   -1.4827 C   0  0  0  0  0  0  0  0  0  0  0  0
    0.6355   -0.9749   -1.1189 C   0  0  0  0  0  0  0  0  0  0  0  0
    1.2235   -1.6479   -0.0768 C   0  0  0  0  0  0  0  0  0  0  0  0
    2.5590   -1.5069    0.3579 N   0  0  0  0  0  0  0  0  0  0  0  0
    3.5989   -0.9284   -0.3565 C   0  0  0  0  0  0  0  0  0  0  0  0
    3.4683   -0.4576   -1.5053 O   0  0  0  0  0  0  0  0  0  0  0  0
    4.8945   -0.8482    0.2153 N   0  0  0  0  0  0  0  0  0  0  0  0
    6.1708   -0.1299   -0.6762 S   0  0  0  0  0  0  0  0  0  0  0  0
    5.6005    0.5871   -1.8690 O   0  0  0  0  0  0  0  0  0  0  0  0
    7.0781   -1.2146   -1.1787 O   0  0  0  0  0  0  0  0  0  0  0  0
    7.0513    0.9895    0.3568 C   0  0  0  0  0  0  0  0  0  0  0  0
    6.6978    2.3255    0.4264 C   0  0  0  0  0  0  0  0  0  0  0  0
    7.3881    3.2023    1.2354 C   0  0  0  0  0  0  0  0  0  0  0  0
    8.4475    2.7814    1.9985 C   0  0  0  0  0  0  0  0  0  0  0  0
    9.3511    3.8733    3.0440 Cl  0  0  0  0  0  0  0  0  0  0  0  0
    8.8150    1.4500    1.9417 C   0  0  0  0  0  0  0  0  0  0  0  0
    8.1164    0.5766    1.1268 C   0  0  0  0  0  0  0  0  0  0  0  0
    0.3973   -2.5806    0.5946 C   0  0  0  0  0  0  0  0  0  0  0  0
   -0.8981   -2.7887    0.2202 C   0  0  0  0  0  0  0  0  0  0  0  0
   -7.1927   -3.9168    2.5572 H   0  0  0  0  0  0  0  0  0  0  0  0
   -5.0315   -2.3234    3.4553 H   0  0  0  0  0  0  0  0  0  0  0  0
   -3.4423   -1.8359    1.4199 H   0  0  0  0  0  0  0  0  0  0  0  0
   -4.7594   -0.6560    1.3575 H   0  0  0  0  0  0  0  0  0  0  0  0
   -5.2199   -0.8298   -2.1893 H   0  0  0  0  0  0  0  0  0  0  0  0
   -6.0422   -0.4140   -0.6583 H   0  0  0  0  0  0  0  0  0  0  0  0
   -5.8550    1.6764   -2.5676 H   0  0  0  0  0  0  0  0  0  0  0  0
   -4.9499    3.9838   -2.5081 H   0  0  0  0  0  0  0  0  0  0  0  0
   -2.0911    2.7927    0.3671 H   0  0  0  0  0  0  0  0  0  0  0  0
   -2.9544    0.5485    0.3237 H   0  0  0  0  0  0  0  0  0  0  0  0
   -1.1081   -0.6386   -2.3250 H   0  0  0  0  0  0  0  0  0  0  0  0
    1.2210   -0.2332   -1.6638 H   0  0  0  0  0  0  0  0  0  0  0  0
    2.7879   -1.8788    1.3329 H   0  0  0  0  0  0  0  0  0  0  0  0
    5.0516   -1.2248    1.1652 H   0  0  0  0  0  0  0  0  0  0  0  0
    5.8525    2.6551   -0.1858 H   0  0  0  0  0  0  0  0  0  0  0  0
    7.0923    4.2403    1.2712 H   0  0  0  0  0  0  0  0  0  0  0  0
    9.6466    1.0723    2.5280 H   0  0  0  0  0  0  0  0  0  0  0  0
    8.3808   -0.4853    1.0579 H   0  0  0  0  0  0  0  0  0  0  0  0
    0.8477   -3.1299    1.4310 H   0  0  0  0  0  0  0  0  0  0  0  0
   -1.4698   -3.5104    0.7720 H   0  0  0  0  0  0  0  0  0  0  0  0
  1  2  1  0
  2  3  1  0
  3  4  2  0
  3  5  1  0
  5  6  1  0
  6  7  1  0
  7  8  1  0
  8  9  2  0
  9 10  1  0
 10 11  2  0
 11 12  1  0
 12 13  2  0
 11 14  1  0
 14 15  1  0
 14 16  2  0
  6 17  1  0
 17 18  2  0
 17 19  2  0
 17 20  1  0
 20 21  2  0
 21 22  1  0
 22 23  2  0
 23 24  1  0
 24 25  1  0
 25 26  2  0
 25 27  1  0
 27 28  1  0
 28 29  2  0
 28 30  2  0
 28 31  1  0
 31 32  2  0
 32 33  1  0
 33 34  2  0
 34 35  1  0
 34 36  1  0
 36 37  2  0
 23 38  1  0
 38 39  2  0
 13  8  1  0
 39 20  1  0
 37 31  1  0
  1 40  1  0
  2 41  1  0
  5 42  1  0
  5 43  1  0
  7 44  1  0
  7 45  1  0
  9 46  1  0
 10 47  1  0
 12 48  1  0
 13 49  1  0
 21 50  1  0
 22 51  1  0
 24 52  1  0
 27 53  1  0
 32 54  1  0
 33 55  1  0
 36 56  1  0
 37 57  1  0
 38 58  1  0
 39 59  1  0
M  CHG  2  14   1  15  -1
M  END
$$$$
[H]N=C(N([H])[H])N([H])C([H])([H])C([H])([H])C([H])([H])[C@@]([H])(C(=O)N([H])C([H])([H])c1c([H])c([H])c(C(=O)N([H])[H])c([H])c1[H])N([H])C(=O)[C@@]([H])(N([H])C(=O)[C@@]([H])(N([H])C(=O)[C@@]([H])(N([H])[H])C([H])([H])C([H])([H])C(=O)N([H])[H])C([H])([H])C([H])([H])C(=O)N([H])[H])C([H])([H])C([H])([H])C(=O)N([H])[H]
     RDKit          3D

 95 95  0  0  0  0  0  0  0  0999 V2000
   -4.8988   -0.2956    4.6532 N   0  0  0  0  0  0  0  0  0  0  0  0
   -5.6970   -1.2541    3.9852 C   0  0  0  0  0  0  0  0  0  0  0  0
   -6.9324   -0.9925    3.7449 N   0  0  0  0  0  0  0  0  0  0  0  0
   -5.0874   -2.5031    3.5907 N   0  0  0  0  0  0  0  0  0  0  0  0
   -4.9148   -2.8324    2.1994 C   0  0  0  0  0  0  0  0  0  0  0  0
   -3.9049   -1.8804    1.5510 C   0  0  0  0  0  0  0  0  0  0  0  0
   -3.6873   -2.2424    0.1144 C   0  0  0  0  0  0  0  0  0  0  0  0
   -2.7304   -1.2900   -0.5702 C   0  0  2  0  0  0  0  0  0  0  0  0
   -1.4712   -1.2220    0.0549 N   0  0  0  0  0  0  0  0  0  0  0  0
   -0.4124   -0.3507    0.1234 C   0  0  0  0  0  0  0  0  0  0  0  0
   -0.3110    0.7643   -0.4299 O   0  0  0  0  0  0  0  0  0  0  0  0
    0.8021   -0.7074    0.9469 C   0  0  2  0  0  0  0  0  0  0  0  0
    0.4123   -1.4013    2.2207 C   0  0  0  0  0  0  0  0  0  0  0  0
    1.7232   -1.7186    2.9637 C   0  0  0  0  0  0  0  0  0  0  0  0
    1.4112   -2.4482    4.2273 C   0  0  0  0  0  0  0  0  0  0  0  0
    2.5361   -2.9695    4.9203 N   0  0  0  0  0  0  0  0  0  0  0  0
    0.2408   -2.6045    4.6707 O   0  0  0  0  0  0  0  0  0  0  0  0
    1.6593    0.4198    1.1885 N   0  0  0  0  0  0  0  0  0  0  0  0
    3.0339    0.4953    0.8921 C   0  0  0  0  0  0  0  0  0  0  0  0
    3.5790   -0.4978    0.3441 O   0  0  0  0  0  0  0  0  0  0  0  0
    3.8695    1.6697    1.1971 C   0  0  2  0  0  0  0  0  0  0  0  0
    3.2471    2.8898    0.5849 C   0  0  0  0  0  0  0  0  0  0  0  0
    3.1408    2.7670   -0.9232 C   0  0  0  0  0  0  0  0  0  0  0  0
    2.5461    3.9630   -1.5385 C   0  0  0  0  0  0  0  0  0  0  0  0
    2.4610    4.0505   -2.9550 N   0  0  0  0  0  0  0  0  0  0  0  0
    2.0981    4.9360   -0.8649 O   0  0  0  0  0  0  0  0  0  0  0  0
    5.2620    1.5223    0.8551 N   0  0  0  0  0  0  0  0  0  0  0  0
    6.2459    1.2130    1.8416 C   0  0  0  0  0  0  0  0  0  0  0  0
    5.8656    1.0504    3.0210 O   0  0  0  0  0  0  0  0  0  0  0  0
    7.6850    1.0668    1.5822 C   0  0  1  0  0  0  0  0  0  0  0  0
    8.3427    0.3253    2.6285 N   0  0  0  0  0  0  0  0  0  0  0  0
    8.0567    0.6182    0.2116 C   0  0  0  0  0  0  0  0  0  0  0  0
    7.4708   -0.7248   -0.1391 C   0  0  0  0  0  0  0  0  0  0  0  0
    7.8378   -1.1127   -1.5241 C   0  0  0  0  0  0  0  0  0  0  0  0
    7.3599   -2.3062   -2.0776 N   0  0  0  0  0  0  0  0  0  0  0  0
    8.5959   -0.3701   -2.2384 O   0  0  0  0  0  0  0  0  0  0  0  0
   -3.3107   -0.0358   -1.0133 C   0  0  0  0  0  0  0  0  0  0  0  0
   -2.6563    0.8346   -1.6028 O   0  0  0  0  0  0  0  0  0  0  0  0
   -4.6823    0.2458   -0.7860 N   0  0  0  0  0  0  0  0  0  0  0  0
   -5.3101    1.4864   -1.2608 C   0  0  0  0  0  0  0  0  0  0  0  0
   -5.6379    1.3138   -2.7189 C   0  0  0  0  0  0  0  0  0  0  0  0
   -6.7285    0.5019   -3.0533 C   0  0  0  0  0  0  0  0  0  0  0  0
   -7.1007    0.2591   -4.3572 C   0  0  0  0  0  0  0  0  0  0  0  0
   -6.3765    0.8355   -5.4121 C   0  0  0  0  0  0  0  0  0  0  0  0
   -5.3160    1.6253   -5.0665 C   0  0  0  0  0  0  0  0  0  0  0  0
   -4.9320    1.8763   -3.7490 C   0  0  0  0  0  0  0  0  0  0  0  0
   -6.7848    0.5602   -6.7791 C   0  0  0  0  0  0  0  0  0  0  0  0
   -6.0948    1.1096   -7.8801 N   0  0  0  0  0  0  0  0  0  0  0  0
   -7.7822   -0.1917   -7.0005 O   0  0  0  0  0  0  0  0  0  0  0  0
   -3.8767   -0.4331    4.7772 H   0  0  0  0  0  0  0  0  0  0  0  0
   -5.3446    0.5623    5.0264 H   0  0  0  0  0  0  0  0  0  0  0  0
   -7.3338   -0.0760    4.0463 H   0  0  0  0  0  0  0  0  0  0  0  0
   -4.7671   -3.1788    4.3119 H   0  0  0  0  0  0  0  0  0  0  0  0
   -4.5990   -3.8871    2.1014 H   0  0  0  0  0  0  0  0  0  0  0  0
   -5.9051   -2.7808    1.6538 H   0  0  0  0  0  0  0  0  0  0  0  0
   -2.9194   -2.1069    2.0653 H   0  0  0  0  0  0  0  0  0  0  0  0
   -4.2429   -0.8696    1.7632 H   0  0  0  0  0  0  0  0  0  0  0  0
   -3.2704   -3.2876    0.0943 H   0  0  0  0  0  0  0  0  0  0  0  0
   -4.6680   -2.3182   -0.3828 H   0  0  0  0  0  0  0  0  0  0  0  0
   -2.4645   -1.8667   -1.5840 H   0  0  0  0  0  0  0  0  0  0  0  0
   -1.2997   -2.1664    0.6420 H   0  0  0  0  0  0  0  0  0  0  0  0
    1.4303   -1.4811    0.3913 H   0  0  0  0  0  0  0  0  0  0  0  0
   -0.0073   -2.3918    1.9953 H   0  0  0  0  0  0  0  0  0  0  0  0
   -0.2670   -0.8437    2.8626 H   0  0  0  0  0  0  0  0  0  0  0  0
    2.2390   -0.7806    3.2342 H   0  0  0  0  0  0  0  0  0  0  0  0
    2.3107   -2.3898    2.3227 H   0  0  0  0  0  0  0  0  0  0  0  0
    2.6391   -3.9932    5.0058 H   0  0  0  0  0  0  0  0  0  0  0  0
    3.2346   -2.3342    5.3224 H   0  0  0  0  0  0  0  0  0  0  0  0
    1.1755    1.2587    1.6351 H   0  0  0  0  0  0  0  0  0  0  0  0
    3.8125    1.7894    2.3238 H   0  0  0  0  0  0  0  0  0  0  0  0
    2.1883    2.9189    0.9730 H   0  0  0  0  0  0  0  0  0  0  0  0
    3.7075    3.8472    0.8980 H   0  0  0  0  0  0  0  0  0  0  0  0
    4.1616    2.6422   -1.3351 H   0  0  0  0  0  0  0  0  0  0  0  0
    2.5618    1.8293   -1.1675 H   0  0  0  0  0  0  0  0  0  0  0  0
    2.2959    3.1828   -3.4851 H   0  0  0  0  0  0  0  0  0  0  0  0
    2.5739    4.9972   -3.3921 H   0  0  0  0  0  0  0  0  0  0  0  0
    5.6007    1.6308   -0.1175 H   0  0  0  0  0  0  0  0  0  0  0  0
    8.1375    2.1269    1.6899 H   0  0  0  0  0  0  0  0  0  0  0  0
    8.7318   -0.5616    2.1908 H   0  0  0  0  0  0  0  0  0  0  0  0
    7.6644    0.0375    3.3731 H   0  0  0  0  0  0  0  0  0  0  0  0
    7.8140    1.3356   -0.5819 H   0  0  0  0  0  0  0  0  0  0  0  0
    9.1803    0.4718    0.1866 H   0  0  0  0  0  0  0  0  0  0  0  0
    6.3663   -0.7609   -0.0854 H   0  0  0  0  0  0  0  0  0  0  0  0
    7.8745   -1.5487    0.5166 H   0  0  0  0  0  0  0  0  0  0  0  0
    7.1842   -3.1329   -1.4831 H   0  0  0  0  0  0  0  0  0  0  0  0
    7.1709   -2.3720   -3.0961 H   0  0  0  0  0  0  0  0  0  0  0  0
   -5.2619   -0.4422   -0.2767 H   0  0  0  0  0  0  0  0  0  0  0  0
   -4.6210    2.3357   -1.1837 H   0  0  0  0  0  0  0  0  0  0  0  0
   -6.2471    1.6441   -0.7131 H   0  0  0  0  0  0  0  0  0  0  0  0
   -7.2854    0.0580   -2.2236 H   0  0  0  0  0  0  0  0  0  0  0  0
   -7.9461   -0.3622   -4.6233 H   0  0  0  0  0  0  0  0  0  0  0  0
   -4.7480    2.0836   -5.8720 H   0  0  0  0  0  0  0  0  0  0  0  0
   -4.0849    2.5036   -3.5102 H   0  0  0  0  0  0  0  0  0  0  0  0
   -5.1056    0.8223   -8.1401 H   0  0  0  0  0  0  0  0  0  0  0  0
   -6.5123    1.8400   -8.5222 H   0  0  0  0  0  0  0  0  0  0  0  0
  1  2  1  0
  2  3  2  3
  2  4  1  0
  4  5  1  0
  5  6  1  0
  6  7  1  0
  7  8  1  0
  8  9  1  0
  9 10  1  0
 10 11  2  0
 10 12  1  0
 12 13  1  0
 13 14  1  0
 14 15  1  0
 15 16  1  0
 15 17  2  0
 12 18  1  0
 18 19  1  0
 19 20  2  0
 19 21  1  0
 21 22  1  0
 22 23  1  0
 23 24  1  0
 24 25  1  0
 24 26  2  0
 21 27  1  0
 27 28  1  0
 28 29  2  0
 28 30  1  0
 30 31  1  0
 30 32  1  0
 32 33  1  0
 33 34  1  0
 34 35  1  0
 34 36  2  0
  8 37  1  0
 37 38  2  0
 37 39  1  0
 39 40  1  0
 40 41  1  0
 41 42  2  0
 42 43  1  0
 43 44  2  0
 44 45  1  0
 45 46  2  0
 44 47  1  0
 47 48  1  0
 47 49  2  0
 46 41  1  0
  1 50  1  0
  1 51  1  0
  3 52  1  0
  4 53  1  0
  5 54  1  0
  5 55  1  0
  6 56  1  0
  6 57  1  0
  7 58  1  0
  7 59  1  0
  8 60  1  6
  9 61  1  0
 12 62  1  6
 13 63  1  0
 13 64  1  0
 14 65  1  0
 14 66  1  0
 16 67  1  0
 16 68  1  0
 18 69  1  0
 21 70  1  1
 22 71  1  0
 22 72  1  0
 23 73  1  0
 23 74  1  0
 25 75  1  0
 25 76  1  0
 27 77  1  0
 30 78  1  6
 31 79  1  0
 31 80  1  0
 32 81  1  0
 32 82  1  0
 33 83  1  0
 33 84  1  0
 35 85  1  0
 35 86  1  0
 39 87  1  0
 40 88  1  0
 40 89  1  0
 42 90  1  0
 43 91  1  0
 45 92  1  0
 46 93  1  0
 48 94  1  0
 48 95  1  0
M  END
$$$$
[H]ON([H])C(=O)/C([H])=C(\[H])c1c([H])c([H])c([H])c(-c2nc3c([H])c([H])c([H])c([H])c3n2C([H])([H])c2c([H])c([H])c([H])c([H])c2[H])c1[H]
     RDKit          3D

 47 50  0  0  0  0  0  0  0  0999 V2000
    9.1469    0.4588    1.2203 O   0  0  0  0  0  0  0  0  0  0  0  0
    8.0170    0.7594    0.5709 N   0  0  0  0  0  0  0  0  0  0  0  0
    6.7744    0.2179    0.9701 C   0  0  0  0  0  0  0  0  0  0  0  0
    6.6813   -0.5661    1.9493 O   0  0  0  0  0  0  0  0  0  0  0  0
    5.5481    0.5805    0.2184 C   0  0  0  0  0  0  0  0  0  0  0  0
    4.3801    0.0963    0.5608 C   0  0  0  0  0  0  0  0  0  0  0  0
    3.1343    0.4053   -0.1275 C   0  0  0  0  0  0  0  0  0  0  0  0
    3.0592    1.2535   -1.2106 C   0  0  0  0  0  0  0  0  0  0  0  0
    1.8665    1.5118   -1.8407 C   0  0  0  0  0  0  0  0  0  0  0  0
    0.6830    0.9251   -1.4088 C   0  0  0  0  0  0  0  0  0  0  0  0
    0.7069    0.0839   -0.3495 C   0  0  0  0  0  0  0  0  0  0  0  0
    1.9405   -0.1538    0.2669 C   0  0  0  0  0  0  0  0  0  0  0  0
   -0.4096   -0.6765    0.2032 C   0  0  0  0  0  0  0  0  0  0  0  0
   -0.3331   -1.3776    1.3896 N   0  0  0  0  0  0  0  0  0  0  0  0
   -1.4481   -2.0472    1.6277 C   0  0  0  0  0  0  0  0  0  0  0  0
   -1.8677   -2.8768    2.6424 C   0  0  0  0  0  0  0  0  0  0  0  0
   -3.1158   -3.4387    2.6018 C   0  0  0  0  0  0  0  0  0  0  0  0
   -3.9692   -3.1853    1.5507 C   0  0  0  0  0  0  0  0  0  0  0  0
   -3.5416   -2.3539    0.5396 C   0  0  0  0  0  0  0  0  0  0  0  0
   -2.2862   -1.7826    0.5713 C   0  0  0  0  0  0  0  0  0  0  0  0
   -1.6123   -0.9301   -0.2906 N   0  0  0  0  0  0  0  0  0  0  0  0
   -2.2587   -0.4351   -1.4669 C   0  0  0  0  0  0  0  0  0  0  0  0
   -3.2117    0.6913   -1.2163 C   0  0  0  0  0  0  0  0  0  0  0  0
   -2.9057    1.8488   -0.5440 C   0  0  0  0  0  0  0  0  0  0  0  0
   -3.8184    2.8659   -0.3670 C   0  0  0  0  0  0  0  0  0  0  0  0
   -5.1043    2.7496   -0.8736 C   0  0  0  0  0  0  0  0  0  0  0  0
   -5.4307    1.5994   -1.5491 C   0  0  0  0  0  0  0  0  0  0  0  0
   -4.5220    0.5845   -1.7267 C   0  0  0  0  0  0  0  0  0  0  0  0
    9.1593    0.9424    2.0915 H   0  0  0  0  0  0  0  0  0  0  0  0
    8.0552    1.4025   -0.2409 H   0  0  0  0  0  0  0  0  0  0  0  0
    5.6092    1.2475   -0.6186 H   0  0  0  0  0  0  0  0  0  0  0  0
    4.3285   -0.5897    1.4243 H   0  0  0  0  0  0  0  0  0  0  0  0
    3.9854    1.7278   -1.5671 H   0  0  0  0  0  0  0  0  0  0  0  0
    1.8162    2.1809   -2.6926 H   0  0  0  0  0  0  0  0  0  0  0  0
   -0.2386    1.1747   -1.9182 H   0  0  0  0  0  0  0  0  0  0  0  0
    2.0279   -0.8279    1.1345 H   0  0  0  0  0  0  0  0  0  0  0  0
   -1.1748   -3.0631    3.4651 H   0  0  0  0  0  0  0  0  0  0  0  0
   -3.4287   -4.0990    3.4253 H   0  0  0  0  0  0  0  0  0  0  0  0
   -4.9605   -3.6163    1.4938 H   0  0  0  0  0  0  0  0  0  0  0  0
   -4.1893   -2.1478   -0.2897 H   0  0  0  0  0  0  0  0  0  0  0  0
   -1.6620   -0.3336   -2.3690 H   0  0  0  0  0  0  0  0  0  0  0  0
   -2.9572   -1.3121   -1.7814 H   0  0  0  0  0  0  0  0  0  0  0  0
   -1.9147    1.9641   -0.1324 H   0  0  0  0  0  0  0  0  0  0  0  0
   -3.5499    3.7639    0.1651 H   0  0  0  0  0  0  0  0  0  0  0  0
   -5.7782    3.5743   -0.7069 H   0  0  0  0  0  0  0  0  0  0  0  0
   -6.4393    1.5152   -1.9429 H   0  0  0  0  0  0  0  0  0  0  0  0
   -4.7916   -0.3119   -2.2601 H   0  0  0  0  0  0  0  0  0  0  0  0
  1  2  1  0
  2  3  1  0
  3  4  2  0
  3  5  1  0
  5  6  2  0
  6  7  1  0
  7  8  2  0
  8  9  1  0
  9 10  2  0
 10 11  1  0
 11 12  2  0
 11 13  1  0
 13 14  2  0
 14 15  1  0
 15 16  2  0
 16 17  1  0
 17 18  2  0
 18 19  1  0
 19 20  2  0
 20 21  1  0
 21 22  1  0
 22 23  1  0
 23 24  2  0
 24 25  1  0
 25 26  2  0
 26 27  1  0
 27 28  2  0
 12  7  1  0
 21 13  1  0
 28 23  1  0
 20 15  1  0
  1 29  1  0
  2 30  1  0
  5 31  1  0
  6 32  1  0
  8 33  1  0
  9 34  1  0
 10 35  1  0
 12 36  1  0
 16 37  1  0
 17 38  1  0
 18 39  1  0
 19 40  1  0
 22 41  1  0
 22 42  1  0
 24 43  1  0
 25 44  1  0
 26 45  1  0
 27 46  1  0
 28 47  1  0
M  END
$$$$
[H]O[C@@](C(=O)N([H])c1c([H])c([H])c([N+](=O)[O-])c(C(F)(F)F)c1[H])(C([H])([H])[H])C([H])([H])Oc1c([H])c([H])c(F)c([H])c1[H]
     RDKit          3D

 42 43  0  0  0  0  0  0  0  0999 V2000
   -1.2882   -1.1255    1.7902 C   0  0  0  0  0  0  0  0  0  0  0  0
   -0.9957   -0.2730    0.6115 C   0  0  2  0  0  0  0  0  0  0  0  0
   -1.1899    1.0865    0.7962 O   0  0  0  0  0  0  0  0  0  0  0  0
   -1.8350   -0.6631   -0.5952 C   0  0  0  0  0  0  0  0  0  0  0  0
   -3.1011   -0.4192   -0.4903 O   0  0  0  0  0  0  0  0  0  0  0  0
   -4.3598   -0.3464   -0.1762 C   0  0  0  0  0  0  0  0  0  0  0  0
   -5.2540    0.4740   -0.8837 C   0  0  0  0  0  0  0  0  0  0  0  0
   -6.5727    0.5540   -0.5610 C   0  0  0  0  0  0  0  0  0  0  0  0
   -7.0847   -0.1754    0.4839 C   0  0  0  0  0  0  0  0  0  0  0  0
   -8.4024   -0.1149    0.8303 F   0  0  0  0  0  0  0  0  0  0  0  0
   -6.2269   -0.9862    1.1912 C   0  0  0  0  0  0  0  0  0  0  0  0
   -4.8940   -1.0686    0.8665 C   0  0  0  0  0  0  0  0  0  0  0  0
    0.4697   -0.4539    0.2880 C   0  0  0  0  0  0  0  0  0  0  0  0
    0.8680   -1.6061    0.0832 O   0  0  0  0  0  0  0  0  0  0  0  0
    1.2904    0.6688    0.2366 N   0  0  0  0  0  0  0  0  0  0  0  0
    2.6549    0.7943   -0.0345 C   0  0  0  0  0  0  0  0  0  0  0  0
    3.2336    2.0712    0.0539 C   0  0  0  0  0  0  0  0  0  0  0  0
    4.5641    2.1823   -0.2159 C   0  0  0  0  0  0  0  0  0  0  0  0
    5.3965    1.1185   -0.5745 C   0  0  0  0  0  0  0  0  0  0  0  0
    4.8013   -0.1103   -0.6512 C   0  0  0  0  0  0  0  0  0  0  0  0
    3.4344   -0.2683   -0.3815 C   0  0  0  0  0  0  0  0  0  0  0  0
    5.5724   -1.3368   -1.0158 C   0  0  0  0  0  0  0  0  0  0  0  0
    6.1968   -1.2281   -2.2259 F   0  0  0  0  0  0  0  0  0  0  0  0
    6.3947   -1.7752   -0.0268 F   0  0  0  0  0  0  0  0  0  0  0  0
    4.6510   -2.4035   -1.1994 F   0  0  0  0  0  0  0  0  0  0  0  0
    6.7511    1.3606   -0.8580 N   0  0  0  0  0  0  0  0  0  0  0  0
    7.0900    2.5806   -1.4472 O   0  0  0  0  0  0  0  0  0  0  0  0
    7.6570    0.5960   -0.6076 O   0  0  0  0  0  0  0  0  0  0  0  0
   -1.6794   -2.1326    1.4692 H   0  0  0  0  0  0  0  0  0  0  0  0
   -1.9869   -0.6004    2.4546 H   0  0  0  0  0  0  0  0  0  0  0  0
   -0.3646   -1.3603    2.3874 H   0  0  0  0  0  0  0  0  0  0  0  0
   -1.2677    1.4983   -0.1037 H   0  0  0  0  0  0  0  0  0  0  0  0
   -1.6389   -1.7730   -0.7802 H   0  0  0  0  0  0  0  0  0  0  0  0
   -1.3889   -0.1444   -1.5090 H   0  0  0  0  0  0  0  0  0  0  0  0
   -4.8351    1.0514   -1.7153 H   0  0  0  0  0  0  0  0  0  0  0  0
   -7.2775    1.1944   -1.1113 H   0  0  0  0  0  0  0  0  0  0  0  0
   -6.6132   -1.5682    2.0178 H   0  0  0  0  0  0  0  0  0  0  0  0
   -4.2693   -1.7298    1.4547 H   0  0  0  0  0  0  0  0  0  0  0  0
    0.7796    1.6013    0.4409 H   0  0  0  0  0  0  0  0  0  0  0  0
    2.6522    2.9512    0.3274 H   0  0  0  0  0  0  0  0  0  0  0  0
    5.0331    3.1585   -0.1539 H   0  0  0  0  0  0  0  0  0  0  0  0
    3.0349   -1.2790   -0.4654 H   0  0  0  0  0  0  0  0  0  0  0  0
  1  2  1  0
  2  3  1  1
  2  4  1  0
  4  5  1  0
  5  6  1  0
  6  7  2  0
  7  8  1  0
  8  9  2  0
  9 10  1  0
  9 11  1  0
 11 12  2  0
  2 13  1  0
 13 14  2  0
 13 15  1  0
 15 16  1  0
 16 17  2  0
 17 18  1  0
 18 19  2  0
 19 20  1  0
 20 21  2  0
 20 22  1  0
 22 23  1  0
 22 24  1  0
 22 25  1  0
 19 26  1  0
 26 27  1  0
 26 28  2  0
 12  6  1  0
 21 16  1  0
  1 29  1  0
  1 30  1  0
  1 31  1  0
  3 32  1  0
  4 33  1  0
  4 34  1  0
  7 35  1  0
  8 36  1  0
 11 37  1  0
 12 38  1  0
 15 39  1  0
 17 40  1  0
 18 41  1  0
 21 42  1  0
M  CHG  2  26   1  27  -1
M  END
$$$$
[H]c1nc([H])c(C([H])([H])[C@]2([H])N3C([H])([H])C([H])([H])C([H])(C([H])([H])C3([H])[H])[C@]2([H])N([H])C(=O)c2c([H])c([H])c([H])c([H])c2[H])c([H])c1[H]
     RDKit          3D

 47 50  0  0  0  0  0  0  0  0999 V2000
    2.5825    1.3055   -1.6423 O   0  0  0  0  0  0  0  0  0  0  0  0
    2.4458    0.5264   -0.6461 C   0  0  0  0  0  0  0  0  0  0  0  0
    1.2574   -0.2303   -0.4712 N   0  0  0  0  0  0  0  0  0  0  0  0
    0.1608   -0.1498   -1.4127 C   0  0  1  0  0  0  0  0  0  0  0  0
   -0.0569   -1.4813   -2.1416 C   0  0  0  0  0  0  0  0  0  0  0  0
   -1.2745   -1.2609   -3.0294 C   0  0  0  0  0  0  0  0  0  0  0  0
   -2.4778   -1.2268   -2.0959 C   0  0  0  0  0  0  0  0  0  0  0  0
   -2.0459   -0.8286   -0.7444 N   0  0  0  0  0  0  0  0  0  0  0  0
   -1.4447   -2.0170   -0.1716 C   0  0  0  0  0  0  0  0  0  0  0  0
   -0.4435   -2.5654   -1.1526 C   0  0  0  0  0  0  0  0  0  0  0  0
   -1.1306    0.2907   -0.8227 C   0  0  1  0  0  0  0  0  0  0  0  0
   -1.0033    0.9706    0.5018 C   0  0  0  0  0  0  0  0  0  0  0  0
   -2.3079    1.4001    1.0599 C   0  0  0  0  0  0  0  0  0  0  0  0
   -3.0961    0.6325    1.8900 C   0  0  0  0  0  0  0  0  0  0  0  0
   -4.3105    1.0821    2.3827 C   0  0  0  0  0  0  0  0  0  0  0  0
   -4.7698    2.3367    2.0466 C   0  0  0  0  0  0  0  0  0  0  0  0
   -4.0004    3.0857    1.2365 N   0  0  0  0  0  0  0  0  0  0  0  0
   -2.8192    2.6630    0.7502 C   0  0  0  0  0  0  0  0  0  0  0  0
    3.5453    0.4552    0.2814 C   0  0  0  0  0  0  0  0  0  0  0  0
    3.6308   -0.5465    1.2059 C   0  0  0  0  0  0  0  0  0  0  0  0
    4.6996   -0.6102    2.1129 C   0  0  0  0  0  0  0  0  0  0  0  0
    5.6699    0.3635    2.0543 C   0  0  0  0  0  0  0  0  0  0  0  0
    5.6098    1.3711    1.1447 C   0  0  0  0  0  0  0  0  0  0  0  0
    4.5454    1.3982    0.2726 C   0  0  0  0  0  0  0  0  0  0  0  0
    1.1825   -0.8498    0.3568 H   0  0  0  0  0  0  0  0  0  0  0  0
    0.4575    0.5669   -2.2056 H   0  0  0  0  0  0  0  0  0  0  0  0
    0.8173   -1.7781   -2.7206 H   0  0  0  0  0  0  0  0  0  0  0  0
   -1.3408   -2.0399   -3.7849 H   0  0  0  0  0  0  0  0  0  0  0  0
   -1.1425   -0.2300   -3.4642 H   0  0  0  0  0  0  0  0  0  0  0  0
   -3.2837   -0.5844   -2.4651 H   0  0  0  0  0  0  0  0  0  0  0  0
   -2.8447   -2.2670   -2.0093 H   0  0  0  0  0  0  0  0  0  0  0  0
   -0.9494   -1.8575    0.7824 H   0  0  0  0  0  0  0  0  0  0  0  0
   -2.2913   -2.7445   -0.0408 H   0  0  0  0  0  0  0  0  0  0  0  0
    0.4418   -2.9965   -0.6421 H   0  0  0  0  0  0  0  0  0  0  0  0
   -0.9458   -3.3645   -1.7539 H   0  0  0  0  0  0  0  0  0  0  0  0
   -1.6359    1.0337   -1.5091 H   0  0  0  0  0  0  0  0  0  0  0  0
   -0.2920    1.8187    0.4591 H   0  0  0  0  0  0  0  0  0  0  0  0
   -0.5393    0.2461    1.2342 H   0  0  0  0  0  0  0  0  0  0  0  0
   -2.7339   -0.3681    2.1629 H   0  0  0  0  0  0  0  0  0  0  0  0
   -4.9021    0.4517    3.0318 H   0  0  0  0  0  0  0  0  0  0  0  0
   -5.7260    2.7253    2.4179 H   0  0  0  0  0  0  0  0  0  0  0  0
   -2.2238    3.2940    0.0985 H   0  0  0  0  0  0  0  0  0  0  0  0
    2.8741   -1.3058    1.2448 H   0  0  0  0  0  0  0  0  0  0  0  0
    4.7421   -1.4101    2.8309 H   0  0  0  0  0  0  0  0  0  0  0  0
    6.5170    0.3531    2.7390 H   0  0  0  0  0  0  0  0  0  0  0  0
    6.3673    2.1422    1.0894 H   0  0  0  0  0  0  0  0  0  0  0  0
    4.4855    2.2000   -0.4608 H   0  0  0  0  0  0  0  0  0  0  0  0
  1  2  2  0
  2  3  1  0
  3  4  1  0
  4  5  1  0
  5  6  1  0
  6  7  1  0
  7  8  1  0
  8  9  1  0
  9 10  1  0
  8 11  1  0
 11 12  1  0
 12 13  1  0
 13 14  2  0
 14 15  1  0
 15 16  2  0
 16 17  1  0
 17 18  2  0
  2 19  1  0
 19 20  2  0
 20 21  1  0
 21 22  2  0
 22 23  1  0
 23 24  2  0
 11  4  1  0
 18 13  1  0
 24 19  1  0
 10  5  1  0
  3 25  1  0
  4 26  1  6
  5 27  1  0
  6 28  1  0
  6 29  1  0
  7 30  1  0
  7 31  1  0
  9 32  1  0
  9 33  1  0
 10 34  1  0
 10 35  1  0
 11 36  1  6
 12 37  1  0
 12 38  1  0
 14 39  1  0
 15 40  1  0
 16 41  1  0
 18 42  1  0
 20 43  1  0
 21 44  1  0
 22 45  1  0
 23 46  1  0
 24 47  1  0
M  END
$$$$
[H]c1nc(N([H])c2c([H])c([H])c([N+](=O)[O-])c([H])c2OC([H])([H])[H])nc(N([H])c2c([H])c([H])c([H])c([H])c2S(=O)(=O)C([H])(C([H])([H])[H])C([H])([H])[H])c1Cl
     RDKit          3D

 52 54  0  0  0  0  0  0  0  0999 V2000
    5.3729    2.6168   -2.1854 C   0  0  0  0  0  0  0  0  0  0  0  0
    4.5964    1.6737   -1.4959 O   0  0  0  0  0  0  0  0  0  0  0  0
    5.1794    0.6551   -0.7614 C   0  0  0  0  0  0  0  0  0  0  0  0
    6.5496    0.5376   -0.6861 C   0  0  0  0  0  0  0  0  0  0  0  0
    7.1629   -0.4517    0.0269 C   0  0  0  0  0  0  0  0  0  0  0  0
    6.3554   -1.3390    0.6762 C   0  0  0  0  0  0  0  0  0  0  0  0
    4.9635   -1.2241    0.6029 C   0  0  0  0  0  0  0  0  0  0  0  0
    4.3253   -0.2461   -0.1018 C   0  0  0  0  0  0  0  0  0  0  0  0
    2.9482   -0.0410   -0.2406 N   0  0  0  0  0  0  0  0  0  0  0  0
    1.9284   -0.8433    0.3485 C   0  0  0  0  0  0  0  0  0  0  0  0
    2.1080   -1.9066    1.1183 N   0  0  0  0  0  0  0  0  0  0  0  0
    1.1158   -2.6314    1.6510 C   0  0  0  0  0  0  0  0  0  0  0  0
   -0.1767   -2.2655    1.3949 C   0  0  0  0  0  0  0  0  0  0  0  0
   -1.4700   -3.2135    2.0917 Cl  0  0  0  0  0  0  0  0  0  0  0  0
   -0.4307   -1.1509    0.5886 C   0  0  0  0  0  0  0  0  0  0  0  0
   -1.7766   -0.7912    0.3410 N   0  0  0  0  0  0  0  0  0  0  0  0
   -2.3174    0.2451   -0.4093 C   0  0  0  0  0  0  0  0  0  0  0  0
   -1.5773    1.1426   -1.1337 C   0  0  0  0  0  0  0  0  0  0  0  0
   -2.1600    2.1744   -1.8952 C   0  0  0  0  0  0  0  0  0  0  0  0
   -3.5231    2.3068   -1.9290 C   0  0  0  0  0  0  0  0  0  0  0  0
   -4.2858    1.4160   -1.2084 C   0  0  0  0  0  0  0  0  0  0  0  0
   -3.6992    0.4121   -0.4680 C   0  0  0  0  0  0  0  0  0  0  0  0
   -4.7259   -0.6528    0.4100 S   0  0  0  0  0  0  0  0  0  0  0  0
   -4.6439   -2.0806   -0.0455 O   0  0  0  0  0  0  0  0  0  0  0  0
   -4.4492   -0.6544    1.9061 O   0  0  0  0  0  0  0  0  0  0  0  0
   -6.4655   -0.2305    0.1669 C   0  0  0  0  0  0  0  0  0  0  0  0
   -7.2192   -1.4064    0.8152 C   0  0  0  0  0  0  0  0  0  0  0  0
   -6.8503    1.0305    0.8529 C   0  0  0  0  0  0  0  0  0  0  0  0
    0.6226   -0.5118    0.1176 N   0  0  0  0  0  0  0  0  0  0  0  0
    8.5762   -0.5059    0.0560 N   0  0  0  0  0  0  0  0  0  0  0  0
    9.3245    0.4161   -0.6180 O   0  0  0  0  0  0  0  0  0  0  0  0
    9.1713   -1.3930    0.6950 O   0  0  0  0  0  0  0  0  0  0  0  0
    6.1662    3.0499   -1.5482 H   0  0  0  0  0  0  0  0  0  0  0  0
    5.8913    2.1004   -3.0429 H   0  0  0  0  0  0  0  0  0  0  0  0
    4.6841    3.4015   -2.5851 H   0  0  0  0  0  0  0  0  0  0  0  0
    7.1349    1.2795   -1.2283 H   0  0  0  0  0  0  0  0  0  0  0  0
    6.8066   -2.1371    1.2517 H   0  0  0  0  0  0  0  0  0  0  0  0
    4.4096   -1.9645    1.1438 H   0  0  0  0  0  0  0  0  0  0  0  0
    2.6352    0.7871   -0.8388 H   0  0  0  0  0  0  0  0  0  0  0  0
    1.3552   -3.5082    2.2850 H   0  0  0  0  0  0  0  0  0  0  0  0
   -2.4824   -1.4436    0.8170 H   0  0  0  0  0  0  0  0  0  0  0  0
   -0.5054    1.1047   -1.1602 H   0  0  0  0  0  0  0  0  0  0  0  0
   -1.5486    2.8672   -2.4564 H   0  0  0  0  0  0  0  0  0  0  0  0
   -3.9527    3.1071   -2.5210 H   0  0  0  0  0  0  0  0  0  0  0  0
   -5.3537    1.5549   -1.2658 H   0  0  0  0  0  0  0  0  0  0  0  0
   -6.6819   -0.2892   -0.8947 H   0  0  0  0  0  0  0  0  0  0  0  0
   -8.2598   -1.4516    0.4951 H   0  0  0  0  0  0  0  0  0  0  0  0
   -6.6516   -2.3440    0.5937 H   0  0  0  0  0  0  0  0  0  0  0  0
   -7.2109   -1.2909    1.9249 H   0  0  0  0  0  0  0  0  0  0  0  0
   -7.3712    1.6831    0.0927 H   0  0  0  0  0  0  0  0  0  0  0  0
   -6.0004    1.5665    1.3258 H   0  0  0  0  0  0  0  0  0  0  0  0
   -7.5942    0.8398    1.6352 H   0  0  0  0  0  0  0  0  0  0  0  0
  1  2  1  0
  2  3  1  0
  3  4  2  0
  4  5  1  0
  5  6  2  0
  6  7  1  0
  7  8  2  0
  8  9  1  0
  9 10  1  0
 10 11  2  0
 11 12  1  0
 12 13  2  0
 13 14  1  0
 13 15  1  0
 15 16  1  0
 16 17  1  0
 17 18  2  0
 18 19  1  0
 19 20  2  0
 20 21  1  0
 21 22  2  0
 22 23  1  0
 23 24  2  0
 23 25  2  0
 23 26  1  0
 26 27  1  0
 26 28  1  0
 15 29  2  0
  5 30  1  0
 30 31  1  0
 30 32  2  0
  8  3  1  0
 29 10  1  0
 22 17  1  0
  1 33  1  0
  1 34  1  0
  1 35  1  0
  4 36  1  0
  6 37  1  0
  7 38  1  0
  9 39  1  0
 12 40  1  0
 16 41  1  0
 18 42  1  0
 19 43  1  0
 20 44  1  0
 21 45  1  0
 26 46  1  0
 27 47  1  0
 27 48  1  0
 27 49  1  0
 28 50  1  0
 28 51  1  0
 28 52  1  0
M  CHG  2  30   1  31  -1
M  END
$$$$
[H]Oc1c([H])c([H])c2c(c1[H])C([H])([H])C([H])([H])[C@]1([H])[C@]2([H])C([H])([H])C([H])([H])[C@@]2(C([H])([H])[H])[C@@]1([H])C([H])([H])C([H])([H])[C@@]2([H])O[H]
     RDKit          3D

 44 47  0  0  0  0  0  0  0  0999 V2000
   -2.1680   -0.7489    1.5854 C   0  0  0  0  0  0  0  0  0  0  0  0
   -2.2077   -0.4556    0.1157 C   0  0  2  0  0  0  0  0  0  0  0  0
   -1.5957   -1.5685   -0.6500 C   0  0  0  0  0  0  0  0  0  0  0  0
   -0.1183   -1.6274   -0.6296 C   0  0  0  0  0  0  0  0  0  0  0  0
    0.5834   -0.3170   -0.6282 C   0  0  1  0  0  0  0  0  0  0  0  0
   -0.0925    0.7034    0.3010 C   0  0  1  0  0  0  0  0  0  0  0  0
    0.7281    1.9445    0.3187 C   0  0  0  0  0  0  0  0  0  0  0  0
    2.0148    1.6264    1.0624 C   0  0  0  0  0  0  0  0  0  0  0  0
    2.7082    0.4581    0.4245 C   0  0  0  0  0  0  0  0  0  0  0  0
    4.0508    0.2830    0.6307 C   0  0  0  0  0  0  0  0  0  0  0  0
    4.7617   -0.7586    0.0845 C   0  0  0  0  0  0  0  0  0  0  0  0
    6.1274   -0.9406    0.2915 O   0  0  0  0  0  0  0  0  0  0  0  0
    4.0810   -1.6565   -0.7012 C   0  0  0  0  0  0  0  0  0  0  0  0
    2.7094   -1.4827   -0.9153 C   0  0  0  0  0  0  0  0  0  0  0  0
    2.0105   -0.4338   -0.3613 C   0  0  0  0  0  0  0  0  0  0  0  0
   -1.4634    0.8367   -0.2321 C   0  0  2  0  0  0  0  0  0  0  0  0
   -2.3247    1.8709    0.3562 C   0  0  0  0  0  0  0  0  0  0  0  0
   -3.7310    1.4021   -0.0218 C   0  0  0  0  0  0  0  0  0  0  0  0
   -3.5978   -0.0999   -0.2796 C   0  0  1  0  0  0  0  0  0  0  0  0
   -3.7348   -0.3675   -1.6499 O   0  0  0  0  0  0  0  0  0  0  0  0
   -1.5326   -1.6486    1.8156 H   0  0  0  0  0  0  0  0  0  0  0  0
   -3.2050   -1.0596    1.9077 H   0  0  0  0  0  0  0  0  0  0  0  0
   -1.8915    0.0931    2.2172 H   0  0  0  0  0  0  0  0  0  0  0  0
   -1.9991   -1.5664   -1.7019 H   0  0  0  0  0  0  0  0  0  0  0  0
   -1.9872   -2.5349   -0.2174 H   0  0  0  0  0  0  0  0  0  0  0  0
    0.2904   -2.2561    0.2133 H   0  0  0  0  0  0  0  0  0  0  0  0
    0.2106   -2.1749   -1.5620 H   0  0  0  0  0  0  0  0  0  0  0  0
    0.4686    0.1347   -1.6573 H   0  0  0  0  0  0  0  0  0  0  0  0
   -0.0643    0.2617    1.3258 H   0  0  0  0  0  0  0  0  0  0  0  0
    0.9143    2.3845   -0.6650 H   0  0  0  0  0  0  0  0  0  0  0  0
    0.1919    2.6990    0.9569 H   0  0  0  0  0  0  0  0  0  0  0  0
    1.7108    1.2840    2.0764 H   0  0  0  0  0  0  0  0  0  0  0  0
    2.6885    2.5024    1.1226 H   0  0  0  0  0  0  0  0  0  0  0  0
    4.6012    0.9859    1.2500 H   0  0  0  0  0  0  0  0  0  0  0  0
    6.6980   -0.3437    0.8426 H   0  0  0  0  0  0  0  0  0  0  0  0
    4.6182   -2.4821   -1.1404 H   0  0  0  0  0  0  0  0  0  0  0  0
    2.2482   -2.2410   -1.5513 H   0  0  0  0  0  0  0  0  0  0  0  0
   -1.4434    0.9099   -1.3285 H   0  0  0  0  0  0  0  0  0  0  0  0
   -2.2189    1.9899    1.4444 H   0  0  0  0  0  0  0  0  0  0  0  0
   -2.0994    2.8527   -0.1341 H   0  0  0  0  0  0  0  0  0  0  0  0
   -4.0542    1.8763   -0.9725 H   0  0  0  0  0  0  0  0  0  0  0  0
   -4.4515    1.6032    0.7982 H   0  0  0  0  0  0  0  0  0  0  0  0
   -4.3461   -0.6660    0.3177 H   0  0  0  0  0  0  0  0  0  0  0  0
   -4.0892   -1.2716   -1.8228 H   0  0  0  0  0  0  0  0  0  0  0  0
  2  1  1  1
  2  3  1  0
  3  4  1  0
  4  5  1  0
  5  6  1  0
  6  7  1  0
  7  8  1  0
  8  9  1  0
  9 10  2  0
 10 11  1  0
 11 12  1  0
 11 13  2  0
 13 14  1  0
 14 15  2  0
  6 16  1  0
 16 17  1  0
 17 18  1  0
 18 19  1  0
 19 20  1  0
 16  2  1  0
 19  2  1  0
 15  5  1  0
 15  9  1  0
  1 21  1  0
  1 22  1  0
  1 23  1  0
  3 24  1  0
  3 25  1  0
  4 26  1  0
  4 27  1  0
  5 28  1  6
  6 29  1  1
  7 30  1  0
  7 31  1  0
  8 32  1  0
  8 33  1  0
 10 34  1  0
 12 35  1  0
 13 36  1  0
 14 37  1  0
 16 38  1  6
 17 39  1  0
 17 40  1  0
 18 41  1  0
 18 42  1  0
 19 43  1  1
 20 44  1  0
M  END
$$$$
[H]N=C(N([H])[H])N([H])C([H])([H])C([H])([H])C([H])([H])[C@@]1([H])C(=O)N([H])[C@@]([H])(C([H])([H])C([H])([H])C(=O)O[H])C(=O)N([H])[C@@]([H])(C([H])([H])C([H])([H])C([H])([H])N([H])C(=N[H])N([H])[H])C(=O)N2C([H])([H])C([H])([H])C([H])([H])[C@@]2([H])C(=O)N([H])[C@@]([H])(C([H])([H])c2c([H])c([H])c(O[H])c([H])c2[H])C(=O)N1[H]
     RDKit          3D

 97 99  0  0  0  0  0  0  0  0999 V2000
   -7.6202   -2.9016    3.3946 N   0  0  0  0  0  0  0  0  0  0  0  0
   -7.2969   -3.0218    2.0125 C   0  0  0  0  0  0  0  0  0  0  0  0
   -8.2547   -3.2117    1.1809 N   0  0  0  0  0  0  0  0  0  0  0  0
   -5.9477   -2.9309    1.5847 N   0  0  0  0  0  0  0  0  0  0  0  0
   -5.5547   -1.8447    0.7485 C   0  0  0  0  0  0  0  0  0  0  0  0
   -4.0889   -1.8843    0.3779 C   0  0  0  0  0  0  0  0  0  0  0  0
   -3.8146   -0.6949   -0.4965 C   0  0  0  0  0  0  0  0  0  0  0  0
   -2.3642   -0.6146   -0.9432 C   0  0  2  0  0  0  0  0  0  0  0  0
   -2.2167    0.5599   -1.7717 N   0  0  0  0  0  0  0  0  0  0  0  0
   -1.6943    1.7961   -1.4053 C   0  0  0  0  0  0  0  0  0  0  0  0
   -1.8098    2.7738   -2.2231 O   0  0  0  0  0  0  0  0  0  0  0  0
   -0.9941    2.1227   -0.1303 C   0  0  2  0  0  0  0  0  0  0  0  0
   -2.0235    2.4934    0.9504 C   0  0  0  0  0  0  0  0  0  0  0  0
   -2.8317    3.6553    0.5706 C   0  0  0  0  0  0  0  0  0  0  0  0
   -4.0068    3.5176   -0.1321 C   0  0  0  0  0  0  0  0  0  0  0  0
   -4.7428    4.6344   -0.4705 C   0  0  0  0  0  0  0  0  0  0  0  0
   -4.3247    5.8987   -0.1176 C   0  0  0  0  0  0  0  0  0  0  0  0
   -5.0637    7.0416   -0.4552 O   0  0  0  0  0  0  0  0  0  0  0  0
   -3.1443    6.0329    0.5880 C   0  0  0  0  0  0  0  0  0  0  0  0
   -2.4157    4.9151    0.9219 C   0  0  0  0  0  0  0  0  0  0  0  0
   -0.1640    3.3019   -0.2708 N   0  0  0  0  0  0  0  0  0  0  0  0
    1.1089    3.5182    0.2634 C   0  0  0  0  0  0  0  0  0  0  0  0
    1.3062    4.5799    0.9640 O   0  0  0  0  0  0  0  0  0  0  0  0
    2.3040    2.6461    0.1188 C   0  0  2  0  0  0  0  0  0  0  0  0
    3.4921    3.6119   -0.0710 C   0  0  0  0  0  0  0  0  0  0  0  0
    3.1748    4.1784   -1.4179 C   0  0  0  0  0  0  0  0  0  0  0  0
    2.5188    3.0445   -2.1285 C   0  0  0  0  0  0  0  0  0  0  0  0
    2.3524    1.9547   -1.1514 N   0  0  0  0  0  0  0  0  0  0  0  0
    2.2566    0.5825   -1.3683 C   0  0  0  0  0  0  0  0  0  0  0  0
    1.6651    0.2330   -2.4525 O   0  0  0  0  0  0  0  0  0  0  0  0
    2.7476   -0.5135   -0.5118 C   0  0  2  0  0  0  0  0  0  0  0  0
    4.1793   -0.2680   -0.0936 C   0  0  0  0  0  0  0  0  0  0  0  0
    4.7092   -1.3786    0.7896 C   0  0  0  0  0  0  0  0  0  0  0  0
    6.1595   -1.0561    1.1711 C   0  0  0  0  0  0  0  0  0  0  0  0
    6.7096   -2.0747    2.0060 N   0  0  0  0  0  0  0  0  0  0  0  0
    8.0616   -1.9049    2.4397 C   0  0  0  0  0  0  0  0  0  0  0  0
    9.0409   -1.5420    1.4771 N   0  0  0  0  0  0  0  0  0  0  0  0
    8.4123   -2.0684    3.6552 N   0  0  0  0  0  0  0  0  0  0  0  0
    2.7078   -1.7893   -1.2250 N   0  0  0  0  0  0  0  0  0  0  0  0
    1.4907   -2.3774   -1.6780 C   0  0  0  0  0  0  0  0  0  0  0  0
    1.5089   -2.9214   -2.8365 O   0  0  0  0  0  0  0  0  0  0  0  0
    0.2374   -2.4072   -0.9450 C   0  0  2  0  0  0  0  0  0  0  0  0
    0.0835   -3.5289    0.0057 C   0  0  0  0  0  0  0  0  0  0  0  0
    0.1133   -4.9197   -0.4266 C   0  0  0  0  0  0  0  0  0  0  0  0
    1.3446   -5.5317   -0.9267 C   0  0  0  0  0  0  0  0  0  0  0  0
    1.2742   -6.7094   -1.7324 O   0  0  0  0  0  0  0  0  0  0  0  0
    2.5229   -5.1505   -0.7402 O   0  0  0  0  0  0  0  0  0  0  0  0
   -0.8437   -2.4331   -1.9636 N   0  0  0  0  0  0  0  0  0  0  0  0
   -2.1047   -1.8284   -1.7524 C   0  0  0  0  0  0  0  0  0  0  0  0
   -3.0788   -2.4208   -2.3346 O   0  0  0  0  0  0  0  0  0  0  0  0
   -7.9285   -3.7792    3.8720 H   0  0  0  0  0  0  0  0  0  0  0  0
   -7.5563   -1.9963    3.9082 H   0  0  0  0  0  0  0  0  0  0  0  0
   -8.0289   -3.3002    0.1750 H   0  0  0  0  0  0  0  0  0  0  0  0
   -5.2843   -3.6670    1.8988 H   0  0  0  0  0  0  0  0  0  0  0  0
   -6.1185   -1.7621   -0.2003 H   0  0  0  0  0  0  0  0  0  0  0  0
   -5.7219   -0.8683    1.2897 H   0  0  0  0  0  0  0  0  0  0  0  0
   -3.7658   -2.8463   -0.0149 H   0  0  0  0  0  0  0  0  0  0  0  0
   -3.5176   -1.7200    1.3285 H   0  0  0  0  0  0  0  0  0  0  0  0
   -4.4283   -0.7939   -1.4123 H   0  0  0  0  0  0  0  0  0  0  0  0
   -4.1404    0.1944    0.0425 H   0  0  0  0  0  0  0  0  0  0  0  0
   -1.6926   -0.5692   -0.0677 H   0  0  0  0  0  0  0  0  0  0  0  0
   -2.5554    0.4386   -2.7737 H   0  0  0  0  0  0  0  0  0  0  0  0
   -0.4064    1.2619    0.1898 H   0  0  0  0  0  0  0  0  0  0  0  0
   -1.3947    2.7256    1.8538 H   0  0  0  0  0  0  0  0  0  0  0  0
   -2.6668    1.6667    1.2300 H   0  0  0  0  0  0  0  0  0  0  0  0
   -4.3802    2.5243   -0.4361 H   0  0  0  0  0  0  0  0  0  0  0  0
   -5.6755    4.5080   -1.0296 H   0  0  0  0  0  0  0  0  0  0  0  0
   -4.8313    7.4716   -1.3558 H   0  0  0  0  0  0  0  0  0  0  0  0
   -2.8310    7.0323    0.8570 H   0  0  0  0  0  0  0  0  0  0  0  0
   -1.4945    5.0745    1.4785 H   0  0  0  0  0  0  0  0  0  0  0  0
   -0.5919    4.0842   -0.8494 H   0  0  0  0  0  0  0  0  0  0  0  0
    2.4374    2.0032    0.9857 H   0  0  0  0  0  0  0  0  0  0  0  0
    3.4897    4.4038    0.6930 H   0  0  0  0  0  0  0  0  0  0  0  0
    4.4362    3.0115   -0.0620 H   0  0  0  0  0  0  0  0  0  0  0  0
    4.0508    4.6066   -1.9447 H   0  0  0  0  0  0  0  0  0  0  0  0
    2.3858    4.9678   -1.2584 H   0  0  0  0  0  0  0  0  0  0  0  0
    1.5194    3.3308   -2.5487 H   0  0  0  0  0  0  0  0  0  0  0  0
    3.1390    2.7660   -2.9863 H   0  0  0  0  0  0  0  0  0  0  0  0
    2.1183   -0.5897    0.4011 H   0  0  0  0  0  0  0  0  0  0  0  0
    4.3479    0.6590    0.4380 H   0  0  0  0  0  0  0  0  0  0  0  0
    4.7747   -0.2296   -1.0476 H   0  0  0  0  0  0  0  0  0  0  0  0
    4.1332   -1.4340    1.7141 H   0  0  0  0  0  0  0  0  0  0  0  0
    4.7633   -2.2958    0.2018 H   0  0  0  0  0  0  0  0  0  0  0  0
    6.1853   -0.0377    1.6129 H   0  0  0  0  0  0  0  0  0  0  0  0
    6.6976   -0.9614    0.1872 H   0  0  0  0  0  0  0  0  0  0  0  0
    6.1179   -2.8893    2.2642 H   0  0  0  0  0  0  0  0  0  0  0  0
    9.6861   -0.7513    1.7050 H   0  0  0  0  0  0  0  0  0  0  0  0
    9.1518   -2.0135    0.5675 H   0  0  0  0  0  0  0  0  0  0  0  0
    7.7686   -2.3312    4.4153 H   0  0  0  0  0  0  0  0  0  0  0  0
    3.5793   -2.3207   -1.4340 H   0  0  0  0  0  0  0  0  0  0  0  0
    0.1002   -1.4354   -0.3542 H   0  0  0  0  0  0  0  0  0  0  0  0
   -0.8743   -3.3775    0.6256 H   0  0  0  0  0  0  0  0  0  0  0  0
    0.8631   -3.4424    0.8516 H   0  0  0  0  0  0  0  0  0  0  0  0
   -0.2069   -5.5940    0.4486 H   0  0  0  0  0  0  0  0  0  0  0  0
   -0.6944   -5.1740   -1.1806 H   0  0  0  0  0  0  0  0  0  0  0  0
    0.5796   -6.7812   -2.4632 H   0  0  0  0  0  0  0  0  0  0  0  0
   -0.6200   -2.9339   -2.8642 H   0  0  0  0  0  0  0  0  0  0  0  0
  1  2  1  0
  2  3  2  3
  2  4  1  0
  4  5  1  0
  5  6  1  0
  6  7  1  0
  7  8  1  0
  8  9  1  0
  9 10  1  0
 10 11  2  0
 10 12  1  0
 12 13  1  0
 13 14  1  0
 14 15  2  0
 15 16  1  0
 16 17  2  0
 17 18  1  0
 17 19  1  0
 19 20  2  0
 12 21  1  0
 21 22  1  0
 22 23  2  0
 22 24  1  0
 24 25  1  0
 25 26  1  0
 26 27  1  0
 27 28  1  0
 28 29  1  0
 29 30  2  0
 29 31  1  0
 31 32  1  0
 32 33  1  0
 33 34  1  0
 34 35  1  0
 35 36  1  0
 36 37  1  0
 36 38  2  3
 31 39  1  0
 39 40  1  0
 40 41  2  0
 40 42  1  0
 42 43  1  0
 43 44  1  0
 44 45  1  0
 45 46  1  0
 45 47  2  0
 42 48  1  0
 48 49  1  0
 49 50  2  0
 49  8  1  0
 20 14  1  0
 28 24  1  0
  1 51  1  0
  1 52  1  0
  3 53  1  0
  4 54  1  0
  5 55  1  0
  5 56  1  0
  6 57  1  0
  6 58  1  0
  7 59  1  0
  7 60  1  0
  8 61  1  1
  9 62  1  0
 12 63  1  1
 13 64  1  0
 13 65  1  0
 15 66  1  0
 16 67  1  0
 18 68  1  0
 19 69  1  0
 20 70  1  0
 21 71  1  0
 24 72  1  1
 25 73  1  0
 25 74  1  0
 26 75  1  0
 26 76  1  0
 27 77  1  0
 27 78  1  0
 31 79  1  1
 32 80  1  0
 32 81  1  0
 33 82  1  0
 33 83  1  0
 34 84  1  0
 34 85  1  0
 35 86  1  0
 37 87  1  0
 37 88  1  0
 38 89  1  0
 39 90  1  0
 42 91  1  1
 43 92  1  0
 43 93  1  0
 44 94  1  0
 44 95  1  0
 46 96  1  0
 48 97  1  0
M  END
$$$$
[H]c1nc([H])c([H])c(-c2c([H])nn([H])c2-c2c([H])c([H])nc(N([H])C(=O)c3c([H])c([H])c([H])c(C(F)(F)F)c3[H])c2[H])c1[H]
     RDKit          3D

 44 47  0  0  0  0  0  0  0  0999 V2000
    6.6282    2.0595    1.3536 F   0  0  0  0  0  0  0  0  0  0  0  0
    6.5513    0.7232    1.0643 C   0  0  0  0  0  0  0  0  0  0  0  0
    6.0280    0.1347    2.2398 F   0  0  0  0  0  0  0  0  0  0  0  0
    7.8019    0.2054    0.8451 F   0  0  0  0  0  0  0  0  0  0  0  0
    5.5923    0.4614   -0.0335 C   0  0  0  0  0  0  0  0  0  0  0  0
    5.5956    1.1274   -1.2381 C   0  0  0  0  0  0  0  0  0  0  0  0
    4.6697    0.8258   -2.2482 C   0  0  0  0  0  0  0  0  0  0  0  0
    3.7281   -0.1649   -2.0370 C   0  0  0  0  0  0  0  0  0  0  0  0
    3.7013   -0.8340   -0.8665 C   0  0  0  0  0  0  0  0  0  0  0  0
    4.6366   -0.5146    0.1307 C   0  0  0  0  0  0  0  0  0  0  0  0
    2.7809   -1.9114   -0.5431 C   0  0  0  0  0  0  0  0  0  0  0  0
    3.2643   -3.1028   -0.6794 O   0  0  0  0  0  0  0  0  0  0  0  0
    1.4805   -1.7956   -0.0973 N   0  0  0  0  0  0  0  0  0  0  0  0
    0.6639   -0.6387    0.0179 C   0  0  0  0  0  0  0  0  0  0  0  0
   -0.5230   -0.8103    0.7411 C   0  0  0  0  0  0  0  0  0  0  0  0
   -1.4064    0.2786    0.8196 C   0  0  0  0  0  0  0  0  0  0  0  0
   -1.1268    1.4671    0.2176 C   0  0  0  0  0  0  0  0  0  0  0  0
    0.0881    1.5671   -0.4881 C   0  0  0  0  0  0  0  0  0  0  0  0
    0.9416    0.5358   -0.5729 N   0  0  0  0  0  0  0  0  0  0  0  0
   -2.5554    0.0693    1.6874 C   0  0  0  0  0  0  0  0  0  0  0  0
   -2.3509   -0.0466    3.0514 N   0  0  0  0  0  0  0  0  0  0  0  0
   -3.5104   -0.2390    3.6241 N   0  0  0  0  0  0  0  0  0  0  0  0
   -4.4912   -0.2640    2.7412 C   0  0  0  0  0  0  0  0  0  0  0  0
   -3.8758   -0.0633    1.4582 C   0  0  0  0  0  0  0  0  0  0  0  0
   -4.6334   -0.0425    0.2252 C   0  0  0  0  0  0  0  0  0  0  0  0
   -5.1486   -1.2222   -0.2687 C   0  0  0  0  0  0  0  0  0  0  0  0
   -5.9481   -1.2655   -1.3780 C   0  0  0  0  0  0  0  0  0  0  0  0
   -6.2725   -0.1197   -2.0456 N   0  0  0  0  0  0  0  0  0  0  0  0
   -5.7727    1.0326   -1.5668 C   0  0  0  0  0  0  0  0  0  0  0  0
   -4.9580    1.1102   -0.4444 C   0  0  0  0  0  0  0  0  0  0  0  0
    6.3558    1.9066   -1.3930 H   0  0  0  0  0  0  0  0  0  0  0  0
    4.6869    1.3517   -3.1868 H   0  0  0  0  0  0  0  0  0  0  0  0
    2.9877   -0.4007   -2.8103 H   0  0  0  0  0  0  0  0  0  0  0  0
    4.6002   -1.0715    1.0751 H   0  0  0  0  0  0  0  0  0  0  0  0
    0.9907   -2.7346    0.1181 H   0  0  0  0  0  0  0  0  0  0  0  0
   -0.7660   -1.7496    1.2217 H   0  0  0  0  0  0  0  0  0  0  0  0
   -1.7929    2.3345    0.2630 H   0  0  0  0  0  0  0  0  0  0  0  0
    0.2671    2.5455   -0.9414 H   0  0  0  0  0  0  0  0  0  0  0  0
   -1.4282   -0.0078    3.4990 H   0  0  0  0  0  0  0  0  0  0  0  0
   -5.5595   -0.4036    2.8272 H   0  0  0  0  0  0  0  0  0  0  0  0
   -4.9191   -2.1777    0.2385 H   0  0  0  0  0  0  0  0  0  0  0  0
   -6.3765   -2.1844   -1.7650 H   0  0  0  0  0  0  0  0  0  0  0  0
   -6.0239    1.9528   -2.0987 H   0  0  0  0  0  0  0  0  0  0  0  0
   -4.6014    2.0757   -0.1200 H   0  0  0  0  0  0  0  0  0  0  0  0
  1  2  1  0
  2  3  1  0
  2  4  1  0
  2  5  1  0
  5  6  2  0
  6  7  1  0
  7  8  2  0
  8  9  1  0
  9 10  2  0
  9 11  1  0
 11 12  2  0
 11 13  1  0
 13 14  1  0
 14 15  2  0
 15 16  1  0
 16 17  2  0
 17 18  1  0
 18 19  2  0
 16 20  1  0
 20 21  1  0
 21 22  1  0
 22 23  2  0
 23 24  1  0
 24 25  1  0
 25 26  2  0
 26 27  1  0
 27 28  2  0
 28 29  1  0
 29 30  2  0
 10  5  1  0
 19 14  1  0
 24 20  2  0
 30 25  1  0
  6 31  1  0
  7 32  1  0
  8 33  1  0
 10 34  1  0
 13 35  1  0
 15 36  1  0
 17 37  1  0
 18 38  1  0
 21 39  1  0
 23 40  1  0
 26 41  1  0
 27 42  1  0
 29 43  1  0
 30 44  1  0
M  END
$$$$
[H]OC(=O)[C@@]([H])(N([H])C(=O)[C@@]([H])(N([H])C(=O)C([H])([H])[C@]([H])(O[H])[C@@]([H])(N([H])C(=O)[C@@]([H])(N([H])C(=O)C([H])([H])C([H])(C([H])([H])[H])C([H])([H])[H])C([H])(c1c([H])c([H])c([H])c([H])c1[H])c1c([H])c([H])c([H])c([H])c1[H])C([H])([H])C([H])(C([H])([H])[H])C([H])([H])[H])C([H])([H])[H])C([H])([H])C([H])(C([H])([H])[H])C([H])([H])[H]
     RDKit          3D

102103  0  0  0  0  0  0  0  0999 V2000
    5.5747   -4.1874   -2.1757 C   0  0  0  0  0  0  0  0  0  0  0  0
    6.4506   -2.9764   -2.4277 C   0  0  0  0  0  0  0  0  0  0  0  0
    5.6001   -1.7531   -2.5114 C   0  0  0  0  0  0  0  0  0  0  0  0
    7.6187   -2.8966   -1.5107 C   0  0  0  0  0  0  0  0  0  0  0  0
    7.2910   -2.8084   -0.0586 C   0  0  2  0  0  0  0  0  0  0  0  0
    6.5251   -1.6642    0.3014 N   0  0  0  0  0  0  0  0  0  0  0  0
    5.2723   -1.7384    0.9143 C   0  0  0  0  0  0  0  0  0  0  0  0
    4.7676   -2.8750    1.1692 O   0  0  0  0  0  0  0  0  0  0  0  0
    4.5162   -0.5408    1.2764 C   0  0  2  0  0  0  0  0  0  0  0  0
    5.3329    0.2348    2.3736 C   0  0  0  0  0  0  0  0  0  0  0  0
    3.2366   -0.8928    1.8790 N   0  0  0  0  0  0  0  0  0  0  0  0
    2.1633    0.0610    1.9084 C   0  0  0  0  0  0  0  0  0  0  0  0
    2.3995    1.1578    1.4023 O   0  0  0  0  0  0  0  0  0  0  0  0
    0.8988   -0.3026    2.5261 C   0  0  0  0  0  0  0  0  0  0  0  0
   -0.0025    0.7169    3.0266 C   0  0  2  0  0  0  0  0  0  0  0  0
   -1.1389    0.1841    3.6687 O   0  0  0  0  0  0  0  0  0  0  0  0
   -0.3989    1.9277    2.2163 C   0  0  2  0  0  0  0  0  0  0  0  0
   -0.4466    3.0813    3.1284 C   0  0  0  0  0  0  0  0  0  0  0  0
   -0.7939    4.4289    2.6239 C   0  0  0  0  0  0  0  0  0  0  0  0
   -0.7053    5.3835    3.8584 C   0  0  0  0  0  0  0  0  0  0  0  0
   -2.2048    4.6149    2.1267 C   0  0  0  0  0  0  0  0  0  0  0  0
   -1.5092    1.6862    1.3622 N   0  0  0  0  0  0  0  0  0  0  0  0
   -1.5706    1.1195    0.0735 C   0  0  0  0  0  0  0  0  0  0  0  0
   -0.4608    0.7588   -0.3953 O   0  0  0  0  0  0  0  0  0  0  0  0
   -2.8277    0.9491   -0.6949 C   0  0  1  0  0  0  0  0  0  0  0  0
   -2.8744   -0.2317   -1.5278 N   0  0  0  0  0  0  0  0  0  0  0  0
   -2.4642   -0.3549   -2.8724 C   0  0  0  0  0  0  0  0  0  0  0  0
   -1.9842    0.5837   -3.4820 O   0  0  0  0  0  0  0  0  0  0  0  0
   -2.6280   -1.6542   -3.5395 C   0  0  0  0  0  0  0  0  0  0  0  0
   -2.0948   -1.7865   -4.9140 C   0  0  0  0  0  0  0  0  0  0  0  0
   -0.6120   -1.5844   -5.0435 C   0  0  0  0  0  0  0  0  0  0  0  0
   -2.5243   -3.1468   -5.4621 C   0  0  0  0  0  0  0  0  0  0  0  0
   -4.0894    1.3836   -0.0967 C   0  0  0  0  0  0  0  0  0  0  0  0
   -4.6318    0.8376    1.1246 C   0  0  0  0  0  0  0  0  0  0  0  0
   -5.4453    1.6735    1.9125 C   0  0  0  0  0  0  0  0  0  0  0  0
   -6.0168    1.2407    3.0824 C   0  0  0  0  0  0  0  0  0  0  0  0
   -5.8063   -0.0620    3.5346 C   0  0  0  0  0  0  0  0  0  0  0  0
   -5.0198   -0.8707    2.7745 C   0  0  0  0  0  0  0  0  0  0  0  0
   -4.4355   -0.4292    1.5806 C   0  0  0  0  0  0  0  0  0  0  0  0
   -5.1523    1.4231   -1.1808 C   0  0  0  0  0  0  0  0  0  0  0  0
   -5.4571    2.6255   -1.7365 C   0  0  0  0  0  0  0  0  0  0  0  0
   -6.4426    2.6929   -2.7068 C   0  0  0  0  0  0  0  0  0  0  0  0
   -7.1361    1.5866   -3.1409 C   0  0  0  0  0  0  0  0  0  0  0  0
   -6.7816    0.3778   -2.5356 C   0  0  0  0  0  0  0  0  0  0  0  0
   -5.8018    0.3016   -1.5694 C   0  0  0  0  0  0  0  0  0  0  0  0
    8.5474   -2.8254    0.7777 C   0  0  0  0  0  0  0  0  0  0  0  0
    9.4194   -3.8613    0.5608 O   0  0  0  0  0  0  0  0  0  0  0  0
    8.7747   -1.9402    1.6221 O   0  0  0  0  0  0  0  0  0  0  0  0
    6.0338   -5.0872   -2.6733 H   0  0  0  0  0  0  0  0  0  0  0  0
    5.4295   -4.4411   -1.1230 H   0  0  0  0  0  0  0  0  0  0  0  0
    4.5750   -4.0249   -2.6383 H   0  0  0  0  0  0  0  0  0  0  0  0
    6.8885   -3.1116   -3.4697 H   0  0  0  0  0  0  0  0  0  0  0  0
    6.0596   -0.8377   -2.1006 H   0  0  0  0  0  0  0  0  0  0  0  0
    5.3847   -1.5078   -3.5961 H   0  0  0  0  0  0  0  0  0  0  0  0
    4.5973   -1.9933   -2.0849 H   0  0  0  0  0  0  0  0  0  0  0  0
    8.2487   -2.0344   -1.8417 H   0  0  0  0  0  0  0  0  0  0  0  0
    8.2146   -3.8456   -1.6535 H   0  0  0  0  0  0  0  0  0  0  0  0
    6.7175   -3.7258    0.2642 H   0  0  0  0  0  0  0  0  0  0  0  0
    6.9168   -0.6900    0.1093 H   0  0  0  0  0  0  0  0  0  0  0  0
    4.3897    0.2294    0.5047 H   0  0  0  0  0  0  0  0  0  0  0  0
    4.7975    1.1935    2.5385 H   0  0  0  0  0  0  0  0  0  0  0  0
    5.3600   -0.3332    3.3006 H   0  0  0  0  0  0  0  0  0  0  0  0
    6.3185    0.4846    1.9551 H   0  0  0  0  0  0  0  0  0  0  0  0
    3.1405   -1.8414    2.2810 H   0  0  0  0  0  0  0  0  0  0  0  0
    0.3690   -1.0754    1.8648 H   0  0  0  0  0  0  0  0  0  0  0  0
    1.1814   -0.9678    3.4172 H   0  0  0  0  0  0  0  0  0  0  0  0
    0.5543    1.1776    3.9492 H   0  0  0  0  0  0  0  0  0  0  0  0
   -1.1839   -0.7965    3.5564 H   0  0  0  0  0  0  0  0  0  0  0  0
    0.4717    2.0829    1.5043 H   0  0  0  0  0  0  0  0  0  0  0  0
    0.5264    3.1875    3.7003 H   0  0  0  0  0  0  0  0  0  0  0  0
   -1.1741    2.8088    3.9576 H   0  0  0  0  0  0  0  0  0  0  0  0
   -0.0785    4.8106    1.8896 H   0  0  0  0  0  0  0  0  0  0  0  0
    0.2427    5.0997    4.4086 H   0  0  0  0  0  0  0  0  0  0  0  0
   -0.6473    6.4259    3.5003 H   0  0  0  0  0  0  0  0  0  0  0  0
   -1.5929    5.2693    4.4920 H   0  0  0  0  0  0  0  0  0  0  0  0
   -2.3242    4.4589    1.0386 H   0  0  0  0  0  0  0  0  0  0  0  0
   -2.4533    5.7122    2.2683 H   0  0  0  0  0  0  0  0  0  0  0  0
   -2.9516    4.0900    2.7483 H   0  0  0  0  0  0  0  0  0  0  0  0
   -2.4480    1.9922    1.7625 H   0  0  0  0  0  0  0  0  0  0  0  0
   -2.6556    1.7705   -1.5251 H   0  0  0  0  0  0  0  0  0  0  0  0
   -3.2656   -1.1408   -1.1139 H   0  0  0  0  0  0  0  0  0  0  0  0
   -3.7585   -1.7935   -3.6168 H   0  0  0  0  0  0  0  0  0  0  0  0
   -2.3374   -2.5101   -2.8771 H   0  0  0  0  0  0  0  0  0  0  0  0
   -2.5608   -1.0256   -5.6120 H   0  0  0  0  0  0  0  0  0  0  0  0
   -0.1455   -1.9850   -4.0963 H   0  0  0  0  0  0  0  0  0  0  0  0
   -0.1706   -2.2305   -5.8612 H   0  0  0  0  0  0  0  0  0  0  0  0
   -0.2986   -0.5414   -5.1141 H   0  0  0  0  0  0  0  0  0  0  0  0
   -2.5936   -3.8232   -4.5978 H   0  0  0  0  0  0  0  0  0  0  0  0
   -3.5311   -3.0229   -5.9089 H   0  0  0  0  0  0  0  0  0  0  0  0
   -1.7640   -3.4941   -6.2010 H   0  0  0  0  0  0  0  0  0  0  0  0
   -3.9185    2.5032    0.1587 H   0  0  0  0  0  0  0  0  0  0  0  0
   -5.6440    2.6976    1.6048 H   0  0  0  0  0  0  0  0  0  0  0  0
   -6.6484    1.8798    3.7010 H   0  0  0  0  0  0  0  0  0  0  0  0
   -6.2837   -0.3459    4.4690 H   0  0  0  0  0  0  0  0  0  0  0  0
   -4.8611   -1.8906    3.1268 H   0  0  0  0  0  0  0  0  0  0  0  0
   -3.8393   -1.1774    1.0895 H   0  0  0  0  0  0  0  0  0  0  0  0
   -4.9349    3.5602   -1.4323 H   0  0  0  0  0  0  0  0  0  0  0  0
   -6.6574    3.6895   -3.1242 H   0  0  0  0  0  0  0  0  0  0  0  0
   -7.9029    1.6600   -3.8997 H   0  0  0  0  0  0  0  0  0  0  0  0
   -7.3308   -0.5025   -2.8750 H   0  0  0  0  0  0  0  0  0  0  0  0
   -5.6048   -0.6788   -1.1645 H   0  0  0  0  0  0  0  0  0  0  0  0
   10.2119   -3.9558    1.1901 H   0  0  0  0  0  0  0  0  0  0  0  0
  1  2  1  0
  2  3  1  0
  2  4  1  0
  4  5  1  0
  5  6  1  0
  6  7  1  0
  7  8  2  0
  7  9  1  0
  9 10  1  0
  9 11  1  0
 11 12  1  0
 12 13  2  0
 12 14  1  0
 14 15  1  0
 15 16  1  0
 15 17  1  0
 17 18  1  0
 18 19  1  0
 19 20  1  0
 19 21  1  0
 17 22  1  0
 22 23  1  0
 23 24  2  0
 23 25  1  0
 25 26  1  0
 26 27  1  0
 27 28  2  0
 27 29  1  0
 29 30  1  0
 30 31  1  0
 30 32  1  0
 25 33  1  0
 33 34  1  0
 34 35  2  0
 35 36  1  0
 36 37  2  0
 37 38  1  0
 38 39  2  0
 33 40  1  0
 40 41  2  0
 41 42  1  0
 42 43  2  0
 43 44  1  0
 44 45  2  0
  5 46  1  0
 46 47  1  0
 46 48  2  0
 39 34  1  0
 45 40  1  0
  1 49  1  0
  1 50  1  0
  1 51  1  0
  2 52  1  0
  3 53  1  0
  3 54  1  0
  3 55  1  0
  4 56  1  0
  4 57  1  0
  5 58  1  1
  6 59  1  0
  9 60  1  6
 10 61  1  0
 10 62  1  0
 10 63  1  0
 11 64  1  0
 14 65  1  0
 14 66  1  0
 15 67  1  1
 16 68  1  0
 17 69  1  6
 18 70  1  0
 18 71  1  0
 19 72  1  0
 20 73  1  0
 20 74  1  0
 20 75  1  0
 21 76  1  0
 21 77  1  0
 21 78  1  0
 22 79  1  0
 25 80  1  6
 26 81  1  0
 29 82  1  0
 29 83  1  0
 30 84  1  0
 31 85  1  0
 31 86  1  0
 31 87  1  0
 32 88  1  0
 32 89  1  0
 32 90  1  0
 33 91  1  0
 35 92  1  0
 36 93  1  0
 37 94  1  0
 38 95  1  0
 39 96  1  0
 41 97  1  0
 42 98  1  0
 43 99  1  0
 44100  1  0
 45101  1  0
 47102  1  0
M  END
$$$$
[H]OC(=O)[C@@]1([H])N(C(=O)[C@@]([H])(N([H])C(=O)[C@@]([H])(N([H])C(=O)C([H])([H])[H])C([H])([H])c2c([H])c([H])c([H])c([H])c2[H])C([H])([H])C([H])(C([H])([H])[H])C([H])([H])[H])C([H])([H])C([H])([H])C1([H])[H]
     RDKit          3D

 61 62  0  0  0  0  0  0  0  0999 V2000
    4.2849    2.9635    0.6953 C   0  0  0  0  0  0  0  0  0  0  0  0
    3.2682    2.1659   -0.1535 C   0  0  0  0  0  0  0  0  0  0  0  0
    2.8025    3.1840   -1.1940 C   0  0  0  0  0  0  0  0  0  0  0  0
    2.1810    1.7633    0.7655 C   0  0  0  0  0  0  0  0  0  0  0  0
    1.0688    0.9363    0.1718 C   0  0  2  0  0  0  0  0  0  0  0  0
    0.0783    0.6696    1.2295 N   0  0  0  0  0  0  0  0  0  0  0  0
   -1.2870    1.0169    1.1014 C   0  0  0  0  0  0  0  0  0  0  0  0
   -1.6282    1.5757    0.0098 O   0  0  0  0  0  0  0  0  0  0  0  0
   -2.2198    0.7336    2.1947 C   0  0  2  0  0  0  0  0  0  0  0  0
   -2.2867   -0.7228    2.5866 C   0  0  0  0  0  0  0  0  0  0  0  0
   -2.7179   -1.6484    1.5500 C   0  0  0  0  0  0  0  0  0  0  0  0
   -4.0788   -1.8991    1.3594 C   0  0  0  0  0  0  0  0  0  0  0  0
   -4.5587   -2.7687    0.4256 C   0  0  0  0  0  0  0  0  0  0  0  0
   -3.6878   -3.4582   -0.3976 C   0  0  0  0  0  0  0  0  0  0  0  0
   -2.3421   -3.2300   -0.2318 C   0  0  0  0  0  0  0  0  0  0  0  0
   -1.8580   -2.3364    0.7297 C   0  0  0  0  0  0  0  0  0  0  0  0
   -3.5497    1.2434    1.8904 N   0  0  0  0  0  0  0  0  0  0  0  0
   -4.1342    2.2344    2.6795 C   0  0  0  0  0  0  0  0  0  0  0  0
   -5.4921    2.7994    2.4244 C   0  0  0  0  0  0  0  0  0  0  0  0
   -3.5111    2.7003    3.6663 O   0  0  0  0  0  0  0  0  0  0  0  0
    1.6447   -0.3794   -0.2199 C   0  0  0  0  0  0  0  0  0  0  0  0
    1.8648   -1.1581    0.7781 O   0  0  0  0  0  0  0  0  0  0  0  0
    1.9474   -0.8265   -1.5025 N   0  0  0  0  0  0  0  0  0  0  0  0
    1.7737   -0.1341   -2.7450 C   0  0  0  0  0  0  0  0  0  0  0  0
    1.5033   -1.1973   -3.7820 C   0  0  0  0  0  0  0  0  0  0  0  0
    1.8303   -2.4949   -3.1162 C   0  0  0  0  0  0  0  0  0  0  0  0
    2.4996   -2.1209   -1.8235 C   0  0  1  0  0  0  0  0  0  0  0  0
    3.9762   -2.1445   -1.9332 C   0  0  0  0  0  0  0  0  0  0  0  0
    4.5650   -3.3715   -2.2119 O   0  0  0  0  0  0  0  0  0  0  0  0
    4.6683   -1.1339   -1.7866 O   0  0  0  0  0  0  0  0  0  0  0  0
    5.0031    3.4801    0.0040 H   0  0  0  0  0  0  0  0  0  0  0  0
    3.7312    3.7613    1.2248 H   0  0  0  0  0  0  0  0  0  0  0  0
    4.7869    2.3348    1.4241 H   0  0  0  0  0  0  0  0  0  0  0  0
    3.8450    1.3549   -0.6168 H   0  0  0  0  0  0  0  0  0  0  0  0
    3.6681    3.3721   -1.8792 H   0  0  0  0  0  0  0  0  0  0  0  0
    1.9201    2.8549   -1.7533 H   0  0  0  0  0  0  0  0  0  0  0  0
    2.5657    4.1625   -0.7273 H   0  0  0  0  0  0  0  0  0  0  0  0
    1.8010    2.6650    1.2866 H   0  0  0  0  0  0  0  0  0  0  0  0
    2.6466    1.1426    1.5831 H   0  0  0  0  0  0  0  0  0  0  0  0
    0.5488    1.3953   -0.6607 H   0  0  0  0  0  0  0  0  0  0  0  0
    0.4103    0.2175    2.0772 H   0  0  0  0  0  0  0  0  0  0  0  0
   -1.8695    1.2813    3.0939 H   0  0  0  0  0  0  0  0  0  0  0  0
   -1.2441   -0.9966    2.8924 H   0  0  0  0  0  0  0  0  0  0  0  0
   -2.8892   -0.8020    3.5082 H   0  0  0  0  0  0  0  0  0  0  0  0
   -4.7761   -1.3787    1.9808 H   0  0  0  0  0  0  0  0  0  0  0  0
   -5.6189   -2.9600    0.2838 H   0  0  0  0  0  0  0  0  0  0  0  0
   -4.0365   -4.1575   -1.1522 H   0  0  0  0  0  0  0  0  0  0  0  0
   -1.6779   -3.7818   -0.8864 H   0  0  0  0  0  0  0  0  0  0  0  0
   -0.7936   -2.2002    0.8239 H   0  0  0  0  0  0  0  0  0  0  0  0
   -4.0258    0.8269    1.0633 H   0  0  0  0  0  0  0  0  0  0  0  0
   -5.5931    2.9158    1.3313 H   0  0  0  0  0  0  0  0  0  0  0  0
   -5.6908    3.6926    3.0143 H   0  0  0  0  0  0  0  0  0  0  0  0
   -6.2122    2.0018    2.7214 H   0  0  0  0  0  0  0  0  0  0  0  0
    2.6950    0.4062   -3.0791 H   0  0  0  0  0  0  0  0  0  0  0  0
    0.8864    0.5300   -2.6606 H   0  0  0  0  0  0  0  0  0  0  0  0
    0.4121   -1.2036   -4.0402 H   0  0  0  0  0  0  0  0  0  0  0  0
    2.1077   -1.0380   -4.7153 H   0  0  0  0  0  0  0  0  0  0  0  0
    2.5641   -3.0218   -3.8017 H   0  0  0  0  0  0  0  0  0  0  0  0
    0.9268   -3.1287   -2.9621 H   0  0  0  0  0  0  0  0  0  0  0  0
    2.1675   -2.8778   -1.0631 H   0  0  0  0  0  0  0  0  0  0  0  0
    5.1369   -3.8111   -1.4752 H   0  0  0  0  0  0  0  0  0  0  0  0
  1  2  1  0
  2  3  1  0
  2  4  1  0
  4  5  1  0
  5  6  1  0
  6  7  1  0
  7  8  2  0
  7  9  1  0
  9 10  1  0
 10 11  1  0
 11 12  2  0
 12 13  1  0
 13 14  2  0
 14 15  1  0
 15 16  2  0
  9 17  1  0
 17 18  1  0
 18 19  1  0
 18 20  2  0
  5 21  1  0
 21 22  2  0
 21 23  1  0
 23 24  1  0
 24 25  1  0
 25 26  1  0
 26 27  1  0
 27 28  1  0
 28 29  1  0
 28 30  2  0
 16 11  1  0
 27 23  1  0
  1 31  1  0
  1 32  1  0
  1 33  1  0
  2 34  1  0
  3 35  1  0
  3 36  1  0
  3 37  1  0
  4 38  1  0
  4 39  1  0
  5 40  1  6
  6 41  1  0
  9 42  1  1
 10 43  1  0
 10 44  1  0
 12 45  1  0
 13 46  1  0
 14 47  1  0
 15 48  1  0
 16 49  1  0
 17 50  1  0
 19 51  1  0
 19 52  1  0
 19 53  1  0
 24 54  1  0
 24 55  1  0
 25 56  1  0
 25 57  1  0
 26 58  1  0
 26 59  1  0
 27 60  1  1
 29 61  1  0
M  END
$$$$
[H]c1c([H])c([H])c(C([H])([H])[C@@]([H])(C(=O)N([H])[C@]([H])(C(=O)[C@]2(C([H])([H])[H])OC2([H])[H])C([H])(C([H])([H])[H])C([H])([H])[H])N([H])C(=O)[C@]2([H])OC(=O)[C@@]2([H])[C@@]([H])(C([H])([H])[H])C([H])([H])C([H])([H])[H])c([H])c1[H]
     RDKit          3D

 67 69  0  0  0  0  0  0  0  0999 V2000
   -6.3075   -3.0758   -0.6290 C   0  0  0  0  0  0  0  0  0  0  0  0
   -5.2252   -2.0528   -0.4689 C   0  0  0  0  0  0  0  0  0  0  0  0
   -5.1784   -1.5698    0.9670 C   0  0  2  0  0  0  0  0  0  0  0  0
   -6.4722   -0.9478    1.3770 C   0  0  0  0  0  0  0  0  0  0  0  0
   -3.9862   -0.6942    1.2091 C   0  0  1  0  0  0  0  0  0  0  0  0
   -3.8932    0.5563    0.3824 C   0  0  1  0  0  0  0  0  0  0  0  0
   -3.6156    1.2495    1.6080 O   0  0  0  0  0  0  0  0  0  0  0  0
   -4.2163    0.2535    2.3268 C   0  0  0  0  0  0  0  0  0  0  0  0
   -4.7402    0.1788    3.4566 O   0  0  0  0  0  0  0  0  0  0  0  0
   -2.6365    0.5217   -0.4290 C   0  0  0  0  0  0  0  0  0  0  0  0
   -2.7111   -0.0480   -1.5419 O   0  0  0  0  0  0  0  0  0  0  0  0
   -1.4292    1.0811   -0.0048 N   0  0  0  0  0  0  0  0  0  0  0  0
   -0.2543    1.0147   -0.8341 C   0  0  1  0  0  0  0  0  0  0  0  0
    0.1288    2.4226   -1.2445 C   0  0  0  0  0  0  0  0  0  0  0  0
    0.4097    3.3111   -0.0973 C   0  0  0  0  0  0  0  0  0  0  0  0
    1.6864    3.4113    0.3972 C   0  0  0  0  0  0  0  0  0  0  0  0
    1.9878    4.2409    1.4812 C   0  0  0  0  0  0  0  0  0  0  0  0
    1.0103    4.9749    2.0755 C   0  0  0  0  0  0  0  0  0  0  0  0
   -0.2808    4.8979    1.6044 C   0  0  0  0  0  0  0  0  0  0  0  0
   -0.5635    4.0688    0.5265 C   0  0  0  0  0  0  0  0  0  0  0  0
    0.8227    0.2358   -0.2297 C   0  0  0  0  0  0  0  0  0  0  0  0
    0.7012   -0.2520    0.9292 O   0  0  0  0  0  0  0  0  0  0  0  0
    2.0387   -0.0077   -0.9129 N   0  0  0  0  0  0  0  0  0  0  0  0
    3.1399   -0.7916   -0.3416 C   0  0  1  0  0  0  0  0  0  0  0  0
    3.2200   -2.1294   -1.0712 C   0  0  0  0  0  0  0  0  0  0  0  0
    1.8930   -2.8858   -0.9004 C   0  0  0  0  0  0  0  0  0  0  0  0
    3.5954   -1.9743   -2.5151 C   0  0  0  0  0  0  0  0  0  0  0  0
    4.4188   -0.0916   -0.4196 C   0  0  0  0  0  0  0  0  0  0  0  0
    4.4113    0.9899   -1.0391 O   0  0  0  0  0  0  0  0  0  0  0  0
    5.7149   -0.4983    0.1411 C   0  0  1  0  0  0  0  0  0  0  0  0
    5.8698   -1.7651    0.9450 C   0  0  0  0  0  0  0  0  0  0  0  0
    6.8891   -0.2625   -0.8144 C   0  0  0  0  0  0  0  0  0  0  0  0
    6.6936    0.4763    0.3547 O   0  0  0  0  0  0  0  0  0  0  0  0
   -5.8807   -4.0588   -0.9149 H   0  0  0  0  0  0  0  0  0  0  0  0
   -6.8483   -3.2057    0.3407 H   0  0  0  0  0  0  0  0  0  0  0  0
   -7.0455   -2.7546   -1.3745 H   0  0  0  0  0  0  0  0  0  0  0  0
   -5.3924   -1.2237   -1.1709 H   0  0  0  0  0  0  0  0  0  0  0  0
   -4.2456   -2.5194   -0.6957 H   0  0  0  0  0  0  0  0  0  0  0  0
   -5.0286   -2.4911    1.5888 H   0  0  0  0  0  0  0  0  0  0  0  0
   -7.2628   -1.2231    0.6203 H   0  0  0  0  0  0  0  0  0  0  0  0
   -6.8111   -1.3379    2.3383 H   0  0  0  0  0  0  0  0  0  0  0  0
   -6.4473    0.1621    1.3661 H   0  0  0  0  0  0  0  0  0  0  0  0
   -3.0651   -1.2873    1.2661 H   0  0  0  0  0  0  0  0  0  0  0  0
   -4.7905    0.8801   -0.1445 H   0  0  0  0  0  0  0  0  0  0  0  0
   -1.3679    1.5503    0.9148 H   0  0  0  0  0  0  0  0  0  0  0  0
   -0.5395    0.4738   -1.7877 H   0  0  0  0  0  0  0  0  0  0  0  0
    0.9882    2.4306   -1.9453 H   0  0  0  0  0  0  0  0  0  0  0  0
   -0.7388    2.8135   -1.8342 H   0  0  0  0  0  0  0  0  0  0  0  0
    2.5135    2.8656   -0.0177 H   0  0  0  0  0  0  0  0  0  0  0  0
    2.9974    4.2943    1.8416 H   0  0  0  0  0  0  0  0  0  0  0  0
    1.2360    5.6214    2.9173 H   0  0  0  0  0  0  0  0  0  0  0  0
   -1.0317    5.4928    2.0983 H   0  0  0  0  0  0  0  0  0  0  0  0
   -1.5766    4.0308    0.1835 H   0  0  0  0  0  0  0  0  0  0  0  0
    2.1635    0.3823   -1.8597 H   0  0  0  0  0  0  0  0  0  0  0  0
    2.9077   -1.0404    0.7045 H   0  0  0  0  0  0  0  0  0  0  0  0
    3.9656   -2.7671   -0.5722 H   0  0  0  0  0  0  0  0  0  0  0  0
    1.0519   -2.3285   -1.3317 H   0  0  0  0  0  0  0  0  0  0  0  0
    1.7865   -3.1048    0.1804 H   0  0  0  0  0  0  0  0  0  0  0  0
    1.9462   -3.8569   -1.4179 H   0  0  0  0  0  0  0  0  0  0  0  0
    2.7785   -2.2470   -3.1987 H   0  0  0  0  0  0  0  0  0  0  0  0
    3.9179   -0.9096   -2.6489 H   0  0  0  0  0  0  0  0  0  0  0  0
    4.5091   -2.5791   -2.7524 H   0  0  0  0  0  0  0  0  0  0  0  0
    6.6705   -1.6618    1.7217 H   0  0  0  0  0  0  0  0  0  0  0  0
    4.9143   -1.9995    1.4756 H   0  0  0  0  0  0  0  0  0  0  0  0
    6.1601   -2.6439    0.3520 H   0  0  0  0  0  0  0  0  0  0  0  0
    6.7058    0.3485   -1.7301 H   0  0  0  0  0  0  0  0  0  0  0  0
    7.7389   -0.9446   -0.8014 H   0  0  0  0  0  0  0  0  0  0  0  0
  1  2  1  0
  2  3  1  0
  3  4  1  0
  3  5  1  0
  5  6  1  0
  6  7  1  0
  7  8  1  0
  8  9  2  0
  6 10  1  0
 10 11  2  0
 10 12  1  0
 12 13  1  0
 13 14  1  0
 14 15  1  0
 15 16  2  0
 16 17  1  0
 17 18  2  0
 18 19  1  0
 19 20  2  0
 13 21  1  0
 21 22  2  0
 21 23  1  0
 23 24  1  0
 24 25  1  0
 25 26  1  0
 25 27  1  0
 24 28  1  0
 28 29  2  0
 30 28  1  6
 30 31  1  0
 30 32  1  0
 32 33  1  0
  8  5  1  0
 20 15  1  0
 33 30  1  0
  1 34  1  0
  1 35  1  0
  1 36  1  0
  2 37  1  0
  2 38  1  0
  3 39  1  1
  4 40  1  0
  4 41  1  0
  4 42  1  0
  5 43  1  1
  6 44  1  6
 12 45  1  0
 13 46  1  6
 14 47  1  0
 14 48  1  0
 16 49  1  0
 17 50  1  0
 18 51  1  0
 19 52  1  0
 20 53  1  0
 23 54  1  0
 24 55  1  1
 25 56  1  0
 26 57  1  0
 26 58  1  0
 26 59  1  0
 27 60  1  0
 27 61  1  0
 27 62  1  0
 31 63  1  0
 31 64  1  0
 31 65  1  0
 32 66  1  0
 32 67  1  0
M  END
$$$$
[H]OB(O[H])[C@@]([H])(N([H])C(=O)[C@@]([H])(N([H])C(=O)[C@@]([H])(N([H])C(=O)C([H])([H])[H])C([H])([H])c1c([H])c([H])c([H])c([H])c1[H])C([H])([H])c1c([H])c([H])c([H])c([H])c1[H])C([H])([H])C([H])(C([H])([H])[H])C([H])([H])[H]
     RDKit          3D

 68 69  0  0  0  0  0  0  0  0999 V2000
    3.7613    4.4037    2.6613 C   0  0  0  0  0  0  0  0  0  0  0  0
    4.0747    3.4776    1.4624 C   0  0  0  0  0  0  0  0  0  0  0  0
    5.5444    3.1843    1.5761 C   0  0  0  0  0  0  0  0  0  0  0  0
    3.1863    2.2934    1.6122 C   0  0  0  0  0  0  0  0  0  0  0  0
    3.2704    1.2414    0.5677 C   0  0  2  0  0  0  0  0  0  0  0  0
    2.3181    0.1856    0.8949 N   0  0  0  0  0  0  0  0  0  0  0  0
    1.1430   -0.0803    0.1497 C   0  0  0  0  0  0  0  0  0  0  0  0
    0.9183    0.6326   -0.8379 O   0  0  0  0  0  0  0  0  0  0  0  0
    0.2360   -1.1493    0.5330 C   0  0  2  0  0  0  0  0  0  0  0  0
    0.8895   -2.5317    0.4545 C   0  0  0  0  0  0  0  0  0  0  0  0
    1.3491   -2.8914   -0.8783 C   0  0  0  0  0  0  0  0  0  0  0  0
    0.4951   -3.5129   -1.7643 C   0  0  0  0  0  0  0  0  0  0  0  0
    0.9204   -3.8718   -3.0467 C   0  0  0  0  0  0  0  0  0  0  0  0
    2.2117   -3.6040   -3.4400 C   0  0  0  0  0  0  0  0  0  0  0  0
    3.0580   -2.9906   -2.5687 C   0  0  0  0  0  0  0  0  0  0  0  0
    2.6202   -2.6446   -1.3084 C   0  0  0  0  0  0  0  0  0  0  0  0
   -0.9642   -1.1936   -0.3158 N   0  0  0  0  0  0  0  0  0  0  0  0
   -2.2658   -1.2983    0.1979 C   0  0  0  0  0  0  0  0  0  0  0  0
   -2.4490   -1.3571    1.4295 O   0  0  0  0  0  0  0  0  0  0  0  0
   -3.4235   -1.3443   -0.7097 C   0  0  2  0  0  0  0  0  0  0  0  0
   -3.5857   -0.1107   -1.5722 C   0  0  0  0  0  0  0  0  0  0  0  0
   -3.7926    1.1235   -0.8397 C   0  0  0  0  0  0  0  0  0  0  0  0
   -2.7518    1.9322   -0.4689 C   0  0  0  0  0  0  0  0  0  0  0  0
   -2.9558    3.1148    0.2405 C   0  0  0  0  0  0  0  0  0  0  0  0
   -4.2225    3.4916    0.5828 C   0  0  0  0  0  0  0  0  0  0  0  0
   -5.2878    2.6998    0.2241 C   0  0  0  0  0  0  0  0  0  0  0  0
   -5.0591    1.5265   -0.4824 C   0  0  0  0  0  0  0  0  0  0  0  0
   -4.6668   -1.5732    0.0431 N   0  0  0  0  0  0  0  0  0  0  0  0
   -5.4559   -2.7410   -0.1516 C   0  0  0  0  0  0  0  0  0  0  0  0
   -6.7004   -3.0065    0.5766 C   0  0  0  0  0  0  0  0  0  0  0  0
   -5.0516   -3.5792   -0.9951 O   0  0  0  0  0  0  0  0  0  0  0  0
    4.6874    0.6733    0.2556 B   0  0  0  0  0  0  0  0  0  0  0  0
    5.2893   -0.3443    1.1432 O   0  0  0  0  0  0  0  0  0  0  0  0
    5.2223    0.6483   -1.1250 O   0  0  0  0  0  0  0  0  0  0  0  0
    4.6117    5.0895    2.8507 H   0  0  0  0  0  0  0  0  0  0  0  0
    3.5371    3.7851    3.5528 H   0  0  0  0  0  0  0  0  0  0  0  0
    2.8513    4.9954    2.4216 H   0  0  0  0  0  0  0  0  0  0  0  0
    3.8774    4.0965    0.5657 H   0  0  0  0  0  0  0  0  0  0  0  0
    6.0682    4.0354    2.1243 H   0  0  0  0  0  0  0  0  0  0  0  0
    6.0402    3.0182    0.6011 H   0  0  0  0  0  0  0  0  0  0  0  0
    5.7299    2.3046    2.2098 H   0  0  0  0  0  0  0  0  0  0  0  0
    3.3552    1.8990    2.6469 H   0  0  0  0  0  0  0  0  0  0  0  0
    2.1017    2.6172    1.6432 H   0  0  0  0  0  0  0  0  0  0  0  0
    2.8654    1.7058   -0.3800 H   0  0  0  0  0  0  0  0  0  0  0  0
    2.5327   -0.3961    1.7300 H   0  0  0  0  0  0  0  0  0  0  0  0
   -0.0711   -1.0400    1.5846 H   0  0  0  0  0  0  0  0  0  0  0  0
    0.1173   -3.2399    0.8611 H   0  0  0  0  0  0  0  0  0  0  0  0
    1.7071   -2.5242    1.2201 H   0  0  0  0  0  0  0  0  0  0  0  0
   -0.5382   -3.7573   -1.5282 H   0  0  0  0  0  0  0  0  0  0  0  0
    0.2408   -4.3628   -3.7426 H   0  0  0  0  0  0  0  0  0  0  0  0
    2.5338   -3.8925   -4.4557 H   0  0  0  0  0  0  0  0  0  0  0  0
    4.0842   -2.7848   -2.9010 H   0  0  0  0  0  0  0  0  0  0  0  0
    3.3397   -2.1684   -0.6672 H   0  0  0  0  0  0  0  0  0  0  0  0
   -0.8118   -1.1440   -1.3395 H   0  0  0  0  0  0  0  0  0  0  0  0
   -3.3070   -2.2148   -1.3746 H   0  0  0  0  0  0  0  0  0  0  0  0
   -4.3588   -0.3520   -2.3334 H   0  0  0  0  0  0  0  0  0  0  0  0
   -2.6328   -0.0009   -2.1688 H   0  0  0  0  0  0  0  0  0  0  0  0
   -1.7235    1.7161   -0.6988 H   0  0  0  0  0  0  0  0  0  0  0  0
   -2.1375    3.7566    0.5360 H   0  0  0  0  0  0  0  0  0  0  0  0
   -4.4421    4.4026    1.1364 H   0  0  0  0  0  0  0  0  0  0  0  0
   -6.2936    2.9795    0.4848 H   0  0  0  0  0  0  0  0  0  0  0  0
   -5.8967    0.9335   -0.7475 H   0  0  0  0  0  0  0  0  0  0  0  0
   -5.0171   -0.8886    0.7475 H   0  0  0  0  0  0  0  0  0  0  0  0
   -7.4092   -2.1457    0.5215 H   0  0  0  0  0  0  0  0  0  0  0  0
   -7.1844   -3.9316    0.2071 H   0  0  0  0  0  0  0  0  0  0  0  0
   -6.4265   -3.2001    1.6534 H   0  0  0  0  0  0  0  0  0  0  0  0
    5.5414   -1.1526    0.6547 H   0  0  0  0  0  0  0  0  0  0  0  0
    4.5523    1.0577   -1.7164 H   0  0  0  0  0  0  0  0  0  0  0  0
  1  2  1  0
  2  3  1  0
  2  4  1  0
  4  5  1  0
  5  6  1  0
  6  7  1  0
  7  8  2  0
  7  9  1  0
  9 10  1  0
 10 11  1  0
 11 12  2  0
 12 13  1  0
 13 14  2  0
 14 15  1  0
 15 16  2  0
  9 17  1  0
 17 18  1  0
 18 19  2  0
 18 20  1  0
 20 21  1  0
 21 22  1  0
 22 23  2  0
 23 24  1  0
 24 25  2  0
 25 26  1  0
 26 27  2  0
 20 28  1  0
 28 29  1  0
 29 30  1  0
 29 31  2  0
  5 32  1  0
 32 33  1  0
 32 34  1  0
 16 11  1  0
 27 22  1  0
  1 35  1  0
  1 36  1  0
  1 37  1  0
  2 38  1  0
  3 39  1  0
  3 40  1  0
  3 41  1  0
  4 42  1  0
  4 43  1  0
  5 44  1  6
  6 45  1  0
  9 46  1  1
 10 47  1  0
 10 48  1  0
 12 49  1  0
 13 50  1  0
 14 51  1  0
 15 52  1  0
 16 53  1  0
 17 54  1  0
 20 55  1  6
 21 56  1  0
 21 57  1  0
 23 58  1  0
 24 59  1  0
 25 60  1  0
 26 61  1  0
 27 62  1  0
 28 63  1  0
 30 64  1  0
 30 65  1  0
 30 66  1  0
 33 67  1  0
 34 68  1  0
M  END
$$$$
[H]OP(=O)(O[H])[C@@]([H])(N([H])C(=O)[C@@]([H])(N([H])C(=O)C([H])([H])[H])C([H])([H])C([H])(C([H])([H])[H])C([H])([H])[H])C([H])([H])c1c([H])n([H])c2c([H])c([H])c([H])c([H])c12
     RDKit          3D

 53 54  0  0  0  0  0  0  0  0999 V2000
   -3.5148    2.4107    1.4416 C   0  0  0  0  0  0  0  0  0  0  0  0
   -3.1606    0.9594    1.7887 C   0  0  0  0  0  0  0  0  0  0  0  0
   -4.1639    0.6150    2.9374 C   0  0  0  0  0  0  0  0  0  0  0  0
   -3.5020    0.0322    0.6967 C   0  0  0  0  0  0  0  0  0  0  0  0
   -2.9166    0.1794   -0.6364 C   0  0  2  0  0  0  0  0  0  0  0  0
   -3.5675   -0.9051   -1.4572 N   0  0  0  0  0  0  0  0  0  0  0  0
   -4.3672   -0.5952   -2.5567 C   0  0  0  0  0  0  0  0  0  0  0  0
   -4.9869   -1.6887   -3.3299 C   0  0  0  0  0  0  0  0  0  0  0  0
   -4.5414    0.6231   -2.8639 O   0  0  0  0  0  0  0  0  0  0  0  0
   -1.5021   -0.0233   -0.8759 C   0  0  0  0  0  0  0  0  0  0  0  0
   -1.1892   -0.3508   -2.0853 O   0  0  0  0  0  0  0  0  0  0  0  0
   -0.4377    0.0817    0.0047 N   0  0  0  0  0  0  0  0  0  0  0  0
    0.9712   -0.1715   -0.4642 C   0  0  1  0  0  0  0  0  0  0  0  0
    1.7840    0.9498    0.0021 C   0  0  0  0  0  0  0  0  0  0  0  0
    3.2156    0.9849   -0.3209 C   0  0  0  0  0  0  0  0  0  0  0  0
    3.7654    1.5204   -1.5091 C   0  0  0  0  0  0  0  0  0  0  0  0
    5.0905    1.3427   -1.5116 N   0  0  0  0  0  0  0  0  0  0  0  0
    5.4702    0.7170   -0.3905 C   0  0  0  0  0  0  0  0  0  0  0  0
    6.7257    0.3513    0.0429 C   0  0  0  0  0  0  0  0  0  0  0  0
    6.8306   -0.2617    1.2711 C   0  0  0  0  0  0  0  0  0  0  0  0
    5.7047   -0.4971    2.0350 C   0  0  0  0  0  0  0  0  0  0  0  0
    4.4681   -0.1189    1.5689 C   0  0  0  0  0  0  0  0  0  0  0  0
    4.3026    0.4953    0.3503 C   0  0  0  0  0  0  0  0  0  0  0  0
    1.3437   -1.8226    0.1219 P   0  0  0  0  0  0  0  0  0  0  0  0
    2.7796   -2.4520   -0.4844 O   0  0  0  0  0  0  0  0  0  0  0  0
    0.0968   -2.9006   -0.3848 O   0  0  0  0  0  0  0  0  0  0  0  0
    1.3322   -1.8931    1.6218 O   0  0  0  0  0  0  0  0  0  0  0  0
   -2.6306    2.9524    1.0633 H   0  0  0  0  0  0  0  0  0  0  0  0
   -4.3630    2.4216    0.7232 H   0  0  0  0  0  0  0  0  0  0  0  0
   -3.8649    2.9669    2.3393 H   0  0  0  0  0  0  0  0  0  0  0  0
   -2.2045    0.9073    2.2701 H   0  0  0  0  0  0  0  0  0  0  0  0
   -3.7451    0.9087    3.9139 H   0  0  0  0  0  0  0  0  0  0  0  0
   -4.4156   -0.4539    2.9155 H   0  0  0  0  0  0  0  0  0  0  0  0
   -5.0979    1.1962    2.8100 H   0  0  0  0  0  0  0  0  0  0  0  0
   -4.6266    0.0163    0.6150 H   0  0  0  0  0  0  0  0  0  0  0  0
   -3.2916   -1.0165    1.1049 H   0  0  0  0  0  0  0  0  0  0  0  0
   -3.3054    1.1292   -1.0910 H   0  0  0  0  0  0  0  0  0  0  0  0
   -3.3833   -1.8780   -1.1529 H   0  0  0  0  0  0  0  0  0  0  0  0
   -5.6226   -2.3317   -2.6711 H   0  0  0  0  0  0  0  0  0  0  0  0
   -5.6130   -1.2334   -4.1279 H   0  0  0  0  0  0  0  0  0  0  0  0
   -4.1589   -2.3085   -3.7527 H   0  0  0  0  0  0  0  0  0  0  0  0
   -0.5227    0.3240    0.9994 H   0  0  0  0  0  0  0  0  0  0  0  0
    0.9277   -0.2500   -1.5888 H   0  0  0  0  0  0  0  0  0  0  0  0
    1.6401    0.9945    1.1423 H   0  0  0  0  0  0  0  0  0  0  0  0
    1.3022    1.9440   -0.2956 H   0  0  0  0  0  0  0  0  0  0  0  0
    3.1493    1.9846   -2.2534 H   0  0  0  0  0  0  0  0  0  0  0  0
    5.7401    1.6426   -2.2675 H   0  0  0  0  0  0  0  0  0  0  0  0
    7.6245    0.5187   -0.5266 H   0  0  0  0  0  0  0  0  0  0  0  0
    7.8077   -0.5719    1.6626 H   0  0  0  0  0  0  0  0  0  0  0  0
    5.7737   -0.9809    3.0063 H   0  0  0  0  0  0  0  0  0  0  0  0
    3.5668   -0.2826    2.1566 H   0  0  0  0  0  0  0  0  0  0  0  0
    2.7863   -2.4106   -1.4828 H   0  0  0  0  0  0  0  0  0  0  0  0
    0.4963   -3.7715   -0.5241 H   0  0  0  0  0  0  0  0  0  0  0  0
  1  2  1  0
  2  3  1  0
  2  4  1  0
  4  5  1  0
  5  6  1  0
  6  7  1  0
  7  8  1  0
  7  9  2  0
  5 10  1  0
 10 11  2  0
 10 12  1  0
 12 13  1  0
 13 14  1  0
 14 15  1  0
 15 16  2  0
 16 17  1  0
 17 18  1  0
 18 19  2  0
 19 20  1  0
 20 21  2  0
 21 22  1  0
 22 23  2  0
 13 24  1  0
 24 25  1  0
 24 26  1  0
 24 27  2  0
 23 15  1  0
 23 18  1  0
  1 28  1  0
  1 29  1  0
  1 30  1  0
  2 31  1  0
  3 32  1  0
  3 33  1  0
  3 34  1  0
  4 35  1  0
  4 36  1  0
  5 37  1  6
  6 38  1  0
  8 39  1  0
  8 40  1  0
  8 41  1  0
 12 42  1  0
 13 43  1  6
 14 44  1  0
 14 45  1  0
 16 46  1  0
 17 47  1  0
 19 48  1  0
 20 49  1  0
 21 50  1  0
 22 51  1  0
 25 52  1  0
 26 53  1  0
M  END
$$$$
[H]O[C@]([H])(C([H])([H])N([H])C(=O)c1c(C([H])([H])[H])c(/C([H])=C2\C(=O)N([H])c3c([H])c([H])c(F)c([H])c32)n([H])c1C([H])([H])[H])C([H])([H])N1C([H])([H])C([H])([H])OC([H])([H])C1([H])[H]
     RDKit          3D

 59 62  0  0  0  0  0  0  0  0999 V2000
   -0.0067    3.0051   -1.0071 C   0  0  0  0  0  0  0  0  0  0  0  0
   -0.8501    1.8317   -0.6247 C   0  0  0  0  0  0  0  0  0  0  0  0
   -2.0811    1.8440   -0.1243 N   0  0  0  0  0  0  0  0  0  0  0  0
   -2.5055    0.6096    0.0967 C   0  0  0  0  0  0  0  0  0  0  0  0
   -3.7672    0.1046    0.6046 C   0  0  0  0  0  0  0  0  0  0  0  0
   -4.9551    0.3616    0.1015 C   0  0  0  0  0  0  0  0  0  0  0  0
   -5.2686    1.1831   -1.0526 C   0  0  0  0  0  0  0  0  0  0  0  0
   -4.4447    1.7926   -1.8068 O   0  0  0  0  0  0  0  0  0  0  0  0
   -6.6877    1.1703   -1.1787 N   0  0  0  0  0  0  0  0  0  0  0  0
   -7.2854    0.3683   -0.1452 C   0  0  0  0  0  0  0  0  0  0  0  0
   -8.5932    0.0485    0.1572 C   0  0  0  0  0  0  0  0  0  0  0  0
   -8.8890   -0.7569    1.2253 C   0  0  0  0  0  0  0  0  0  0  0  0
   -7.8675   -1.2558    2.0099 C   0  0  0  0  0  0  0  0  0  0  0  0
   -8.1704   -2.0582    3.0732 F   0  0  0  0  0  0  0  0  0  0  0  0
   -6.5671   -0.9274    1.6946 C   0  0  0  0  0  0  0  0  0  0  0  0
   -6.2525   -0.1198    0.6256 C   0  0  0  0  0  0  0  0  0  0  0  0
   -1.4701   -0.2719   -0.2891 C   0  0  0  0  0  0  0  0  0  0  0  0
   -1.5634   -1.7560   -0.2190 C   0  0  0  0  0  0  0  0  0  0  0  0
   -0.4504    0.4817   -0.7334 C   0  0  0  0  0  0  0  0  0  0  0  0
    0.8421    0.0665   -1.2851 C   0  0  0  0  0  0  0  0  0  0  0  0
    1.4391    0.9461   -2.0019 O   0  0  0  0  0  0  0  0  0  0  0  0
    1.4641   -1.1610   -1.1017 N   0  0  0  0  0  0  0  0  0  0  0  0
    2.7215   -1.6317   -1.5988 C   0  0  0  0  0  0  0  0  0  0  0  0
    3.9100   -0.9040   -1.0858 C   0  0  1  0  0  0  0  0  0  0  0  0
    3.9623    0.4288   -1.4233 O   0  0  0  0  0  0  0  0  0  0  0  0
    3.9389   -1.0769    0.4336 C   0  0  0  0  0  0  0  0  0  0  0  0
    5.1145   -0.5489    1.0231 N   0  0  0  0  0  0  0  0  0  0  0  0
    6.3057   -1.2328    0.7606 C   0  0  0  0  0  0  0  0  0  0  0  0
    7.5650   -0.4418    0.7566 C   0  0  0  0  0  0  0  0  0  0  0  0
    7.4895    0.7846    1.3637 O   0  0  0  0  0  0  0  0  0  0  0  0
    6.4448    1.4794    0.7104 C   0  0  0  0  0  0  0  0  0  0  0  0
    5.1722    0.8464    1.2284 C   0  0  0  0  0  0  0  0  0  0  0  0
    0.0822    3.1015   -2.1049 H   0  0  0  0  0  0  0  0  0  0  0  0
    0.9945    2.8829   -0.5849 H   0  0  0  0  0  0  0  0  0  0  0  0
   -0.4526    3.9508   -0.6159 H   0  0  0  0  0  0  0  0  0  0  0  0
   -2.6066    2.7533    0.0695 H   0  0  0  0  0  0  0  0  0  0  0  0
   -3.7823   -0.5608    1.4939 H   0  0  0  0  0  0  0  0  0  0  0  0
   -7.2117    1.6663   -1.9082 H   0  0  0  0  0  0  0  0  0  0  0  0
   -9.3955    0.4290   -0.4451 H   0  0  0  0  0  0  0  0  0  0  0  0
   -9.9115   -1.0343    1.4983 H   0  0  0  0  0  0  0  0  0  0  0  0
   -5.7718   -1.3177    2.3089 H   0  0  0  0  0  0  0  0  0  0  0  0
   -2.6454   -2.0706   -0.0938 H   0  0  0  0  0  0  0  0  0  0  0  0
   -1.2591   -2.2559   -1.1569 H   0  0  0  0  0  0  0  0  0  0  0  0
   -1.0707   -2.1818    0.6776 H   0  0  0  0  0  0  0  0  0  0  0  0
    0.9409   -1.8713   -0.4745 H   0  0  0  0  0  0  0  0  0  0  0  0
    2.7227   -1.5655   -2.7387 H   0  0  0  0  0  0  0  0  0  0  0  0
    2.8856   -2.7214   -1.3345 H   0  0  0  0  0  0  0  0  0  0  0  0
    4.8252   -1.3984   -1.5342 H   0  0  0  0  0  0  0  0  0  0  0  0
    4.6728    0.6685   -2.0620 H   0  0  0  0  0  0  0  0  0  0  0  0
    3.8608   -2.1623    0.6551 H   0  0  0  0  0  0  0  0  0  0  0  0
    3.0333   -0.6218    0.8919 H   0  0  0  0  0  0  0  0  0  0  0  0
    6.4000   -2.0516    1.5425 H   0  0  0  0  0  0  0  0  0  0  0  0
    6.2394   -1.7948   -0.1894 H   0  0  0  0  0  0  0  0  0  0  0  0
    8.3678   -1.0168    1.3034 H   0  0  0  0  0  0  0  0  0  0  0  0
    7.9510   -0.2953   -0.2738 H   0  0  0  0  0  0  0  0  0  0  0  0
    6.5258    1.2239   -0.3654 H   0  0  0  0  0  0  0  0  0  0  0  0
    6.4620    2.5549    0.9159 H   0  0  0  0  0  0  0  0  0  0  0  0
    5.1227    1.0724    2.3311 H   0  0  0  0  0  0  0  0  0  0  0  0
    4.3267    1.4070    0.7958 H   0  0  0  0  0  0  0  0  0  0  0  0
  1  2  1  0
  2  3  1  0
  3  4  1  0
  4  5  1  0
  5  6  2  0
  6  7  1  0
  7  8  2  0
  7  9  1  0
  9 10  1  0
 10 11  2  0
 11 12  1  0
 12 13  2  0
 13 14  1  0
 13 15  1  0
 15 16  2  0
  4 17  2  0
 17 18  1  0
 17 19  1  0
 19 20  1  0
 20 21  2  0
 20 22  1  0
 22 23  1  0
 23 24  1  0
 24 25  1  0
 24 26  1  0
 26 27  1  0
 27 28  1  0
 28 29  1  0
 29 30  1  0
 30 31  1  0
 31 32  1  0
 19  2  2  0
 32 27  1  0
 16  6  1  0
 16 10  1  0
  1 33  1  0
  1 34  1  0
  1 35  1  0
  3 36  1  0
  5 37  1  0
  9 38  1  0
 11 39  1  0
 12 40  1  0
 15 41  1  0
 18 42  1  0
 18 43  1  0
 18 44  1  0
 22 45  1  0
 23 46  1  0
 23 47  1  0
 24 48  1  6
 25 49  1  0
 26 50  1  0
 26 51  1  0
 28 52  1  0
 28 53  1  0
 29 54  1  0
 29 55  1  0
 31 56  1  0
 31 57  1  0
 32 58  1  0
 32 59  1  0
M  END
$$$$
[H]c1nc(-c2c([H])c([H])c([H])c([H])c2F)c([H])c([H])c1C#Cc1nc(C([H])([H])[H])sc1[H]
     RDKit          3D

 32 34  0  0  0  0  0  0  0  0999 V2000
    7.6484   -0.9842   -0.5995 C   0  0  0  0  0  0  0  0  0  0  0  0
    6.5215   -0.4488    0.2487 C   0  0  0  0  0  0  0  0  0  0  0  0
    5.2257   -0.4497    0.0084 N   0  0  0  0  0  0  0  0  0  0  0  0
    4.4012    0.0691    0.8794 C   0  0  0  0  0  0  0  0  0  0  0  0
    4.9556    0.5967    2.0218 C   0  0  0  0  0  0  0  0  0  0  0  0
    6.6183    0.3132    1.7692 S   0  0  0  0  0  0  0  0  0  0  0  0
    2.9499    0.0741    0.6220 C   0  0  0  0  0  0  0  0  0  0  0  0
    1.7611    0.0873    0.4308 C   0  0  0  0  0  0  0  0  0  0  0  0
    0.3383    0.0998    0.2274 C   0  0  0  0  0  0  0  0  0  0  0  0
   -0.1514   -0.1899   -1.0032 C   0  0  0  0  0  0  0  0  0  0  0  0
   -1.5409   -0.1734   -1.1852 C   0  0  0  0  0  0  0  0  0  0  0  0
   -2.4193    0.1183   -0.1899 C   0  0  0  0  0  0  0  0  0  0  0  0
   -1.8581    0.4009    1.0257 N   0  0  0  0  0  0  0  0  0  0  0  0
   -0.5426    0.3962    1.2413 C   0  0  0  0  0  0  0  0  0  0  0  0
   -3.8694    0.1494   -0.2962 C   0  0  0  0  0  0  0  0  0  0  0  0
   -4.6061    0.4076    0.8748 C   0  0  0  0  0  0  0  0  0  0  0  0
   -5.9728    0.4693    0.9087 C   0  0  0  0  0  0  0  0  0  0  0  0
   -6.6923    0.2734   -0.2435 C   0  0  0  0  0  0  0  0  0  0  0  0
   -6.0109    0.0187   -1.4081 C   0  0  0  0  0  0  0  0  0  0  0  0
   -4.6064   -0.0409   -1.4241 C   0  0  0  0  0  0  0  0  0  0  0  0
   -4.0044   -0.2904   -2.6122 F   0  0  0  0  0  0  0  0  0  0  0  0
    8.5203   -0.2929   -0.4571 H   0  0  0  0  0  0  0  0  0  0  0  0
    7.9684   -1.9743   -0.2580 H   0  0  0  0  0  0  0  0  0  0  0  0
    7.3544   -0.9262   -1.6469 H   0  0  0  0  0  0  0  0  0  0  0  0
    4.4237    1.0745    2.8660 H   0  0  0  0  0  0  0  0  0  0  0  0
    0.5194   -0.4232   -1.8053 H   0  0  0  0  0  0  0  0  0  0  0  0
   -1.8816   -0.4088   -2.1564 H   0  0  0  0  0  0  0  0  0  0  0  0
   -0.1808    0.6269    2.2169 H   0  0  0  0  0  0  0  0  0  0  0  0
   -4.0235    0.5631    1.7947 H   0  0  0  0  0  0  0  0  0  0  0  0
   -6.4987    0.6712    1.8353 H   0  0  0  0  0  0  0  0  0  0  0  0
   -7.7709    0.3267   -0.1925 H   0  0  0  0  0  0  0  0  0  0  0  0
   -6.5762   -0.1336   -2.3049 H   0  0  0  0  0  0  0  0  0  0  0  0
  1  2  1  0
  2  3  2  0
  3  4  1  0
  4  5  2  0
  5  6  1  0
  4  7  1  0
  7  8  3  0
  8  9  1  0
  9 10  2  0
 10 11  1  0
 11 12  2  0
 12 13  1  0
 13 14  2  0
 12 15  1  0
 15 16  2  0
 16 17  1  0
 17 18  2  0
 18 19  1  0
 19 20  2  0
 20 21  1  0
  6  2  1  0
 14  9  1  0
 20 15  1  0
  1 22  1  0
  1 23  1  0
  1 24  1  0
  5 25  1  0
 10 26  1  0
 11 27  1  0
 14 28  1  0
 16 29  1  0
 17 30  1  0
 18 31  1  0
 19 32  1  0
M  END
$$$$
[H]N=C(N([H])[H])N([H])C([H])([H])C([H])([H])C([H])([H])[C@]([H])(C(=O)N([H])[C@]([H])(C(=O)N([H])C([H])([H])C(=O)N([H])[H])C([H])([H])c1c([H])c([H])c(O[H])c([H])c1[H])N([H])C(=O)[C@@]([H])(N([H])[H])C([H])([H])c1c(C([H])([H])[H])c([H])c(O[H])c([H])c1C([H])([H])[H]
     RDKit          3D

 82 83  0  0  0  0  0  0  0  0999 V2000
   -6.4902    1.4400    1.3598 C   0  0  0  0  0  0  0  0  0  0  0  0
   -6.4324    0.1820    0.5754 C   0  0  0  0  0  0  0  0  0  0  0  0
   -7.6226   -0.5594    0.4329 C   0  0  0  0  0  0  0  0  0  0  0  0
   -7.6656   -1.7122   -0.3175 C   0  0  0  0  0  0  0  0  0  0  0  0
   -8.8110   -2.4679   -0.4813 O   0  0  0  0  0  0  0  0  0  0  0  0
   -6.5091   -2.1342   -0.9357 C   0  0  0  0  0  0  0  0  0  0  0  0
   -5.3279   -1.4418   -0.8223 C   0  0  0  0  0  0  0  0  0  0  0  0
   -4.1057   -1.8910   -1.4951 C   0  0  0  0  0  0  0  0  0  0  0  0
   -5.3071   -0.2813   -0.0579 C   0  0  0  0  0  0  0  0  0  0  0  0
   -4.0213    0.3869    0.0873 C   0  0  0  0  0  0  0  0  0  0  0  0
   -3.2577   -0.0328    1.3140 C   0  0  2  0  0  0  0  0  0  0  0  0
   -3.9001    0.2117    2.5723 N   0  0  0  0  0  0  0  0  0  0  0  0
   -1.8958    0.5838    1.3738 C   0  0  0  0  0  0  0  0  0  0  0  0
   -1.5139    1.1735    2.4041 O   0  0  0  0  0  0  0  0  0  0  0  0
   -0.9902    0.5221    0.2841 N   0  0  0  0  0  0  0  0  0  0  0  0
    0.3369    1.0910    0.3332 C   0  0  2  0  0  0  0  0  0  0  0  0
    0.4713    2.2441   -0.6486 C   0  0  0  0  0  0  0  0  0  0  0  0
   -0.5317    3.3449   -0.3180 C   0  0  0  0  0  0  0  0  0  0  0  0
   -0.3642    4.4720   -1.2811 C   0  0  0  0  0  0  0  0  0  0  0  0
   -1.2523    5.5797   -1.0985 N   0  0  0  0  0  0  0  0  0  0  0  0
   -1.1540    6.4254    0.0106 C   0  0  0  0  0  0  0  0  0  0  0  0
   -0.2664    6.1465    1.0726 N   0  0  0  0  0  0  0  0  0  0  0  0
   -1.8667    7.4930    0.1009 N   0  0  0  0  0  0  0  0  0  0  0  0
    1.3145    0.0472   -0.0479 C   0  0  0  0  0  0  0  0  0  0  0  0
    0.8740   -1.0802   -0.4188 O   0  0  0  0  0  0  0  0  0  0  0  0
    2.7159    0.2265   -0.0219 N   0  0  0  0  0  0  0  0  0  0  0  0
    3.5843   -0.8721   -0.4179 C   0  0  1  0  0  0  0  0  0  0  0  0
    4.7105   -0.4314   -1.2803 C   0  0  0  0  0  0  0  0  0  0  0  0
    5.5883   -1.5350   -1.6836 C   0  0  0  0  0  0  0  0  0  0  0  0
    6.6985   -1.8409   -0.9335 C   0  0  0  0  0  0  0  0  0  0  0  0
    7.5099   -2.8757   -1.3140 C   0  0  0  0  0  0  0  0  0  0  0  0
    7.2229   -3.6132   -2.4427 C   0  0  0  0  0  0  0  0  0  0  0  0
    8.0708   -4.6658   -2.8067 O   0  0  0  0  0  0  0  0  0  0  0  0
    6.1205   -3.3256   -3.2062 C   0  0  0  0  0  0  0  0  0  0  0  0
    5.3093   -2.2753   -2.8079 C   0  0  0  0  0  0  0  0  0  0  0  0
    4.1129   -1.4414    0.8775 C   0  0  0  0  0  0  0  0  0  0  0  0
    4.3081   -0.6421    1.8119 O   0  0  0  0  0  0  0  0  0  0  0  0
    4.3395   -2.8226    0.9337 N   0  0  0  0  0  0  0  0  0  0  0  0
    4.8227   -3.4698    2.1143 C   0  0  0  0  0  0  0  0  0  0  0  0
    3.8729   -3.3240    3.2195 C   0  0  0  0  0  0  0  0  0  0  0  0
    2.6444   -2.6529    3.0823 N   0  0  0  0  0  0  0  0  0  0  0  0
    4.1737   -3.8226    4.3285 O   0  0  0  0  0  0  0  0  0  0  0  0
   -5.7065    2.1610    1.1441 H   0  0  0  0  0  0  0  0  0  0  0  0
   -6.7154    1.2758    2.4372 H   0  0  0  0  0  0  0  0  0  0  0  0
   -7.4418    1.9508    0.9891 H   0  0  0  0  0  0  0  0  0  0  0  0
   -8.5192   -0.1987    0.9345 H   0  0  0  0  0  0  0  0  0  0  0  0
   -8.9518   -3.2069    0.2208 H   0  0  0  0  0  0  0  0  0  0  0  0
   -6.5473   -3.0548   -1.5342 H   0  0  0  0  0  0  0  0  0  0  0  0
   -3.6822   -1.1535   -2.2104 H   0  0  0  0  0  0  0  0  0  0  0  0
   -4.4015   -2.7574   -2.1668 H   0  0  0  0  0  0  0  0  0  0  0  0
   -3.3559   -2.3273   -0.8153 H   0  0  0  0  0  0  0  0  0  0  0  0
   -3.3320    0.2112   -0.7717 H   0  0  0  0  0  0  0  0  0  0  0  0
   -4.0969    1.5084    0.1382 H   0  0  0  0  0  0  0  0  0  0  0  0
   -3.0417   -1.1482    1.2253 H   0  0  0  0  0  0  0  0  0  0  0  0
   -3.5362   -0.5252    3.2416 H   0  0  0  0  0  0  0  0  0  0  0  0
   -3.6361    1.1532    2.9837 H   0  0  0  0  0  0  0  0  0  0  0  0
   -1.2932    0.0486   -0.5829 H   0  0  0  0  0  0  0  0  0  0  0  0
    0.5587    1.4796    1.3503 H   0  0  0  0  0  0  0  0  0  0  0  0
    0.2696    1.8304   -1.6552 H   0  0  0  0  0  0  0  0  0  0  0  0
    1.4795    2.6616   -0.6322 H   0  0  0  0  0  0  0  0  0  0  0  0
   -1.5751    2.9744   -0.4111 H   0  0  0  0  0  0  0  0  0  0  0  0
   -0.3368    3.6498    0.7233 H   0  0  0  0  0  0  0  0  0  0  0  0
   -0.4884    4.0645   -2.3290 H   0  0  0  0  0  0  0  0  0  0  0  0
    0.6980    4.8486   -1.2024 H   0  0  0  0  0  0  0  0  0  0  0  0
   -1.9870    5.7320   -1.8390 H   0  0  0  0  0  0  0  0  0  0  0  0
   -0.6334    5.6645    1.9472 H   0  0  0  0  0  0  0  0  0  0  0  0
    0.7560    6.4086    1.0173 H   0  0  0  0  0  0  0  0  0  0  0  0
   -2.5267    7.7263   -0.6676 H   0  0  0  0  0  0  0  0  0  0  0  0
    3.1146    1.1363    0.2786 H   0  0  0  0  0  0  0  0  0  0  0  0
    2.9523   -1.6400   -0.9020 H   0  0  0  0  0  0  0  0  0  0  0  0
    5.2785    0.3727   -0.7492 H   0  0  0  0  0  0  0  0  0  0  0  0
    4.3612    0.0670   -2.2208 H   0  0  0  0  0  0  0  0  0  0  0  0
    6.8981   -1.2540   -0.0625 H   0  0  0  0  0  0  0  0  0  0  0  0
    8.3835   -3.1050   -0.7089 H   0  0  0  0  0  0  0  0  0  0  0  0
    7.8602   -5.1990   -3.6261 H   0  0  0  0  0  0  0  0  0  0  0  0
    5.8917   -3.9011   -4.0910 H   0  0  0  0  0  0  0  0  0  0  0  0
    4.4469   -2.0669   -3.4243 H   0  0  0  0  0  0  0  0  0  0  0  0
    4.1589   -3.4253    0.1034 H   0  0  0  0  0  0  0  0  0  0  0  0
    5.0464   -4.5583    1.9265 H   0  0  0  0  0  0  0  0  0  0  0  0
    5.7850   -2.9678    2.4345 H   0  0  0  0  0  0  0  0  0  0  0  0
    1.9672   -2.9115    2.3364 H   0  0  0  0  0  0  0  0  0  0  0  0
    2.3832   -1.8837    3.7195 H   0  0  0  0  0  0  0  0  0  0  0  0
  1  2  1  0
  2  3  2  0
  3  4  1  0
  4  5  1  0
  4  6  2  0
  6  7  1  0
  7  8  1  0
  7  9  2  0
  9 10  1  0
 10 11  1  0
 11 12  1  0
 11 13  1  0
 13 14  2  0
 13 15  1  0
 15 16  1  0
 16 17  1  0
 17 18  1  0
 18 19  1  0
 19 20  1  0
 20 21  1  0
 21 22  1  0
 21 23  2  3
 16 24  1  0
 24 25  2  0
 24 26  1  0
 26 27  1  0
 27 28  1  0
 28 29  1  0
 29 30  2  0
 30 31  1  0
 31 32  2  0
 32 33  1  0
 32 34  1  0
 34 35  2  0
 27 36  1  0
 36 37  2  0
 36 38  1  0
 38 39  1  0
 39 40  1  0
 40 41  1  0
 40 42  2  0
  9  2  1  0
 35 29  1  0
  1 43  1  0
  1 44  1  0
  1 45  1  0
  3 46  1  0
  5 47  1  0
  6 48  1  0
  8 49  1  0
  8 50  1  0
  8 51  1  0
 10 52  1  0
 10 53  1  0
 11 54  1  6
 12 55  1  0
 12 56  1  0
 15 57  1  0
 16 58  1  1
 17 59  1  0
 17 60  1  0
 18 61  1  0
 18 62  1  0
 19 63  1  0
 19 64  1  0
 20 65  1  0
 22 66  1  0
 22 67  1  0
 23 68  1  0
 26 69  1  0
 27 70  1  6
 28 71  1  0
 28 72  1  0
 30 73  1  0
 31 74  1  0
 33 75  1  0
 34 76  1  0
 35 77  1  0
 38 78  1  0
 39 79  1  0
 39 80  1  0
 41 81  1  0
 41 82  1  0
M  END
$$$$
[H]c1c([H])c([H])c(-n2c(=O)c3c([H])nc4c([H])c([H])c([H])c([H])c4c3n2[H])c([H])c1[H]
     RDKit          3D

 31 34  0  0  0  0  0  0  0  0999 V2000
   -1.5273   -0.7972    2.5702 O   0  0  0  0  0  0  0  0  0  0  0  0
   -0.7504   -0.5080    1.6351 C   0  0  0  0  0  0  0  0  0  0  0  0
   -1.1353   -0.0752    0.4280 N   0  0  0  0  0  0  0  0  0  0  0  0
   -0.0437    0.1239   -0.2848 N   0  0  0  0  0  0  0  0  0  0  0  0
    1.0534   -0.1713    0.4353 C   0  0  0  0  0  0  0  0  0  0  0  0
    0.6299   -0.5805    1.6743 C   0  0  0  0  0  0  0  0  0  0  0  0
    1.5463   -0.9461    2.6206 C   0  0  0  0  0  0  0  0  0  0  0  0
    2.8528   -0.8926    2.3036 N   0  0  0  0  0  0  0  0  0  0  0  0
    3.2857   -0.4927    1.0905 C   0  0  0  0  0  0  0  0  0  0  0  0
    4.6285   -0.4392    0.7687 C   0  0  0  0  0  0  0  0  0  0  0  0
    5.0271   -0.0192   -0.4985 C   0  0  0  0  0  0  0  0  0  0  0  0
    4.1176    0.3535   -1.4663 C   0  0  0  0  0  0  0  0  0  0  0  0
    2.7828    0.3010   -1.1485 C   0  0  0  0  0  0  0  0  0  0  0  0
    2.3908   -0.1149    0.1058 C   0  0  0  0  0  0  0  0  0  0  0  0
   -2.4823    0.1360   -0.0174 C   0  0  0  0  0  0  0  0  0  0  0  0
   -2.8515    1.3268   -0.6101 C   0  0  0  0  0  0  0  0  0  0  0  0
   -4.1264    1.5898   -1.0578 C   0  0  0  0  0  0  0  0  0  0  0  0
   -5.0709    0.5959   -0.8958 C   0  0  0  0  0  0  0  0  0  0  0  0
   -4.7377   -0.6086   -0.3070 C   0  0  0  0  0  0  0  0  0  0  0  0
   -3.4432   -0.8524    0.1380 C   0  0  0  0  0  0  0  0  0  0  0  0
   -0.0046    0.4660   -1.2815 H   0  0  0  0  0  0  0  0  0  0  0  0
    1.1858   -1.2615    3.5799 H   0  0  0  0  0  0  0  0  0  0  0  0
    5.3294   -0.7309    1.5277 H   0  0  0  0  0  0  0  0  0  0  0  0
    6.0743    0.0129   -0.7214 H   0  0  0  0  0  0  0  0  0  0  0  0
    4.5074    0.6674   -2.4249 H   0  0  0  0  0  0  0  0  0  0  0  0
    2.0506    0.5918   -1.9012 H   0  0  0  0  0  0  0  0  0  0  0  0
   -2.0959    2.0794   -0.7220 H   0  0  0  0  0  0  0  0  0  0  0  0
   -4.3870    2.5514   -1.5265 H   0  0  0  0  0  0  0  0  0  0  0  0
   -6.0656    0.8166   -1.2516 H   0  0  0  0  0  0  0  0  0  0  0  0
   -5.5293   -1.3339   -0.2159 H   0  0  0  0  0  0  0  0  0  0  0  0
   -3.2114   -1.7883    0.5883 H   0  0  0  0  0  0  0  0  0  0  0  0
  1  2  2  0
  2  3  1  0
  3  4  1  0
  4  5  1  0
  5  6  2  0
  6  7  1  0
  7  8  2  0
  8  9  1  0
  9 10  2  0
 10 11  1  0
 11 12  2  0
 12 13  1  0
 13 14  2  0
  3 15  1  0
 15 16  2  0
 16 17  1  0
 17 18  2  0
 18 19  1  0
 19 20  2  0
  6  2  1  0
 14  9  1  0
 20 15  1  0
 14  5  1  0
  4 21  1  0
  7 22  1  0
 10 23  1  0
 11 24  1  0
 12 25  1  0
 13 26  1  0
 16 27  1  0
 17 28  1  0
 18 29  1  0
 19 30  1  0
 20 31  1  0
M  END
$$$$
[H]OC([H])([H])C([H])(n1nc([H])c(-c2c([H])c(C([H])([H])[H])c([H])c3c2-c2c([H])c([H])c([H])c([H])c2C3(O[H])C(F)(F)F)c1[H])C([H])([H])O[H]
     RDKit          3D

 48 51  0  0  0  0  0  0  0  0999 V2000
   -2.2773    4.2505    1.3912 C   0  0  0  0  0  0  0  0  0  0  0  0
   -1.9585    2.8378    0.9814 C   0  0  0  0  0  0  0  0  0  0  0  0
   -2.9702    1.9473    0.7150 C   0  0  0  0  0  0  0  0  0  0  0  0
   -2.7512    0.6440    0.3375 C   0  0  0  0  0  0  0  0  0  0  0  0
   -1.4250    0.1889    0.2148 C   0  0  0  0  0  0  0  0  0  0  0  0
   -1.4233   -1.2240   -0.1699 C   0  0  0  0  0  0  0  0  0  0  0  0
   -0.4406   -2.1634   -0.4042 C   0  0  0  0  0  0  0  0  0  0  0  0
   -0.7951   -3.4441   -0.7398 C   0  0  0  0  0  0  0  0  0  0  0  0
   -2.1105   -3.8332   -0.8526 C   0  0  0  0  0  0  0  0  0  0  0  0
   -3.0890   -2.8933   -0.6173 C   0  0  0  0  0  0  0  0  0  0  0  0
   -2.7674   -1.6101   -0.2816 C   0  0  0  0  0  0  0  0  0  0  0  0
   -3.6591   -0.4735    0.0067 C   0  0  0  0  0  0  0  0  0  0  0  0
   -4.3550   -0.1527   -1.1503 O   0  0  0  0  0  0  0  0  0  0  0  0
   -4.5910   -0.8013    1.1558 C   0  0  0  0  0  0  0  0  0  0  0  0
   -5.4384   -1.8332    0.8623 F   0  0  0  0  0  0  0  0  0  0  0  0
   -5.3297    0.3161    1.4794 F   0  0  0  0  0  0  0  0  0  0  0  0
   -3.8820   -1.1558    2.2868 F   0  0  0  0  0  0  0  0  0  0  0  0
   -0.4084    1.0637    0.4743 C   0  0  0  0  0  0  0  0  0  0  0  0
   -0.6778    2.3895    0.8591 C   0  0  0  0  0  0  0  0  0  0  0  0
    0.9812    0.6876    0.3063 C   0  0  0  0  0  0  0  0  0  0  0  0
    1.7894    0.3383    1.3677 C   0  0  0  0  0  0  0  0  0  0  0  0
    3.0079    0.1203    0.8615 N   0  0  0  0  0  0  0  0  0  0  0  0
    3.0233    0.3081   -0.4456 N   0  0  0  0  0  0  0  0  0  0  0  0
    1.7858    0.6599   -0.8216 C   0  0  0  0  0  0  0  0  0  0  0  0
    4.2046    0.1460   -1.2716 C   0  0  0  0  0  0  0  0  0  0  0  0
    4.8292   -1.2238   -1.0277 C   0  0  0  0  0  0  0  0  0  0  0  0
    3.8522   -2.1642   -1.3680 O   0  0  0  0  0  0  0  0  0  0  0  0
    5.2313    1.2202   -0.9264 C   0  0  0  0  0  0  0  0  0  0  0  0
    5.5881    1.1051    0.4139 O   0  0  0  0  0  0  0  0  0  0  0  0
   -3.2871    4.5317    1.0301 H   0  0  0  0  0  0  0  0  0  0  0  0
   -2.2883    4.3532    2.4892 H   0  0  0  0  0  0  0  0  0  0  0  0
   -1.5643    4.9647    0.9833 H   0  0  0  0  0  0  0  0  0  0  0  0
   -3.9924    2.3119    0.8136 H   0  0  0  0  0  0  0  0  0  0  0  0
    0.5880   -1.9473   -0.3239 H   0  0  0  0  0  0  0  0  0  0  0  0
   -0.0217   -4.2068   -0.9308 H   0  0  0  0  0  0  0  0  0  0  0  0
   -2.3399   -4.8666   -1.1229 H   0  0  0  0  0  0  0  0  0  0  0  0
   -4.1242   -3.2212   -0.7128 H   0  0  0  0  0  0  0  0  0  0  0  0
   -5.3295   -0.1426   -0.9525 H   0  0  0  0  0  0  0  0  0  0  0  0
    0.1733    3.0200    1.0488 H   0  0  0  0  0  0  0  0  0  0  0  0
    1.5144    0.2502    2.4185 H   0  0  0  0  0  0  0  0  0  0  0  0
    1.4427    0.8852   -1.7976 H   0  0  0  0  0  0  0  0  0  0  0  0
    3.9661    0.1929   -2.3477 H   0  0  0  0  0  0  0  0  0  0  0  0
    5.0866   -1.2812    0.0548 H   0  0  0  0  0  0  0  0  0  0  0  0
    5.7423   -1.3484   -1.6075 H   0  0  0  0  0  0  0  0  0  0  0  0
    3.2610   -2.3781   -0.5964 H   0  0  0  0  0  0  0  0  0  0  0  0
    4.8225    2.2236   -1.1292 H   0  0  0  0  0  0  0  0  0  0  0  0
    6.1497    1.0246   -1.5151 H   0  0  0  0  0  0  0  0  0  0  0  0
    6.2573    0.3838    0.5606 H   0  0  0  0  0  0  0  0  0  0  0  0
  1  2  1  0
  2  3  2  0
  3  4  1  0
  4  5  2  0
  5  6  1  0
  6  7  2  0
  7  8  1  0
  8  9  2  0
  9 10  1  0
 10 11  2  0
 11 12  1  0
 12 13  1  0
 12 14  1  0
 14 15  1  0
 14 16  1  0
 14 17  1  0
  5 18  1  0
 18 19  2  0
 18 20  1  0
 20 21  1  0
 21 22  2  0
 22 23  1  0
 23 24  1  0
 23 25  1  0
 25 26  1  0
 26 27  1  0
 25 28  1  0
 28 29  1  0
 19  2  1  0
 24 20  2  0
 12  4  1  0
 11  6  1  0
  1 30  1  0
  1 31  1  0
  1 32  1  0
  3 33  1  0
  7 34  1  0
  8 35  1  0
  9 36  1  0
 10 37  1  0
 13 38  1  0
 19 39  1  0
 21 40  1  0
 24 41  1  0
 25 42  1  0
 26 43  1  0
 26 44  1  0
 27 45  1  0
 28 46  1  0
 28 47  1  0
 29 48  1  0
M  END
$$$$
[H]c1nc2nc(N([H])[H])nc(N([H])[H])c2c(C([H])([H])[H])c1C([H])([H])N([H])c1c([H])c(OC([H])([H])[H])c([H])c(OC([H])([H])[H])c1[H]
     RDKit          3D

 45 47  0  0  0  0  0  0  0  0999 V2000
   -3.6199    0.2474    3.1278 C   0  0  0  0  0  0  0  0  0  0  0  0
   -4.2051    0.0011    1.9101 O   0  0  0  0  0  0  0  0  0  0  0  0
   -3.7511    0.0327    0.6160 C   0  0  0  0  0  0  0  0  0  0  0  0
   -2.4484    0.3238    0.2505 C   0  0  0  0  0  0  0  0  0  0  0  0
   -2.0677    0.3430   -1.0806 C   0  0  0  0  0  0  0  0  0  0  0  0
   -0.6943    0.6679   -1.4322 N   0  0  0  0  0  0  0  0  0  0  0  0
    0.2209    0.8909   -0.3911 C   0  0  0  0  0  0  0  0  0  0  0  0
    1.6749    0.8922   -0.5943 C   0  0  0  0  0  0  0  0  0  0  0  0
    2.4298    1.9492   -1.0212 C   0  0  0  0  0  0  0  0  0  0  0  0
    3.7572    1.9566   -0.8363 N   0  0  0  0  0  0  0  0  0  0  0  0
    4.4196    0.9517   -0.2354 C   0  0  0  0  0  0  0  0  0  0  0  0
    5.7497    1.0260    0.0005 N   0  0  0  0  0  0  0  0  0  0  0  0
    6.3986    0.0623    0.6401 C   0  0  0  0  0  0  0  0  0  0  0  0
    7.7913    0.1498    1.0316 N   0  0  0  0  0  0  0  0  0  0  0  0
    5.7017   -1.0105    1.0395 N   0  0  0  0  0  0  0  0  0  0  0  0
    4.3759   -1.1226    0.8267 C   0  0  0  0  0  0  0  0  0  0  0  0
    3.7313   -2.3560    1.0967 N   0  0  0  0  0  0  0  0  0  0  0  0
    3.6673   -0.1298    0.1915 C   0  0  0  0  0  0  0  0  0  0  0  0
    2.3255   -0.2114    0.0456 C   0  0  0  0  0  0  0  0  0  0  0  0
    1.5015   -1.3351    0.5375 C   0  0  0  0  0  0  0  0  0  0  0  0
   -2.9734    0.0668   -2.0283 C   0  0  0  0  0  0  0  0  0  0  0  0
   -4.3290   -0.2394   -1.7331 C   0  0  0  0  0  0  0  0  0  0  0  0
   -5.2161   -0.5027   -2.7284 O   0  0  0  0  0  0  0  0  0  0  0  0
   -6.5596   -0.7892   -2.5912 C   0  0  0  0  0  0  0  0  0  0  0  0
   -4.6736   -0.2482   -0.4151 C   0  0  0  0  0  0  0  0  0  0  0  0
   -4.4307    0.2390    3.9492 H   0  0  0  0  0  0  0  0  0  0  0  0
   -3.1686    1.2852    3.1827 H   0  0  0  0  0  0  0  0  0  0  0  0
   -2.8615   -0.4713    3.4332 H   0  0  0  0  0  0  0  0  0  0  0  0
   -1.7245    0.5043    1.0394 H   0  0  0  0  0  0  0  0  0  0  0  0
   -0.4404    0.7120   -2.4354 H   0  0  0  0  0  0  0  0  0  0  0  0
    0.0549    2.1456   -0.3431 H   0  0  0  0  0  0  0  0  0  0  0  0
   -0.0939    0.7638    0.6727 H   0  0  0  0  0  0  0  0  0  0  0  0
    1.9180    2.8004   -1.5329 H   0  0  0  0  0  0  0  0  0  0  0  0
    8.5523    0.2374    0.4059 H   0  0  0  0  0  0  0  0  0  0  0  0
    7.9291    0.1061    2.0887 H   0  0  0  0  0  0  0  0  0  0  0  0
    3.4847   -2.9140    0.2230 H   0  0  0  0  0  0  0  0  0  0  0  0
    3.5287   -2.7159    2.0040 H   0  0  0  0  0  0  0  0  0  0  0  0
    1.5744   -1.5811    1.5943 H   0  0  0  0  0  0  0  0  0  0  0  0
    0.4235   -0.9339    0.5524 H   0  0  0  0  0  0  0  0  0  0  0  0
    1.3207   -2.1585   -0.2007 H   0  0  0  0  0  0  0  0  0  0  0  0
   -2.6898    0.0622   -3.0862 H   0  0  0  0  0  0  0  0  0  0  0  0
   -6.9191   -1.6824   -3.1673 H   0  0  0  0  0  0  0  0  0  0  0  0
   -7.1314    0.1221   -2.9753 H   0  0  0  0  0  0  0  0  0  0  0  0
   -6.8719   -0.8741   -1.5211 H   0  0  0  0  0  0  0  0  0  0  0  0
   -5.6615   -0.4608   -0.1106 H   0  0  0  0  0  0  0  0  0  0  0  0
  1  2  1  0
  2  3  1  0
  3  4  2  0
  4  5  1  0
  5  6  1  0
  6  7  1  0
  7  8  1  0
  8  9  2  0
  9 10  1  0
 10 11  2  0
 11 12  1  0
 12 13  2  0
 13 14  1  0
 13 15  1  0
 15 16  2  0
 16 17  1  0
 16 18  1  0
 18 19  2  0
 19 20  1  0
  5 21  2  0
 21 22  1  0
 22 23  1  0
 23 24  1  0
 22 25  2  0
 25  3  1  0
 19  8  1  0
 18 11  1  0
  1 26  1  0
  1 27  1  0
  1 28  1  0
  4 29  1  0
  6 30  1  0
  7 31  1  0
  7 32  1  0
  9 33  1  0
 14 34  1  0
 14 35  1  0
 17 36  1  0
 17 37  1  0
 20 38  1  0
 20 39  1  0
 20 40  1  0
 21 41  1  0
 24 42  1  0
 24 43  1  0
 24 44  1  0
 25 45  1  0
M  END
$$$$
[H]N=C(N([H])[H])N([H])C([H])([H])C([H])([H])C([H])([H])[C@@]([H])(C(=O)c1nc([H])c([H])s1)N([H])C(=O)[C@@]1([H])N(C(=O)[C@]([H])(N([H])C(=O)OC([H])([H])c2c([H])c([H])c([H])c([H])c2[H])C([H])([H])c2c([H])c([H])c([H])c([H])c2[H])C([H])([H])c2c([H])c([H])c([H])c([H])c2C1([H])[H]
     RDKit          3D

 88 92  0  0  0  0  0  0  0  0999 V2000
    5.8168    4.1625   -1.0722 N   0  0  0  0  0  0  0  0  0  0  0  0
    4.5253    4.7531   -1.0936 C   0  0  0  0  0  0  0  0  0  0  0  0
    4.3707    5.8646   -1.7269 N   0  0  0  0  0  0  0  0  0  0  0  0
    3.4671    4.1043   -0.4194 N   0  0  0  0  0  0  0  0  0  0  0  0
    2.6560    3.1489   -1.1053 C   0  0  0  0  0  0  0  0  0  0  0  0
    3.3239    1.8914   -1.4900 C   0  0  0  0  0  0  0  0  0  0  0  0
    3.8710    1.0113   -0.4378 C   0  0  0  0  0  0  0  0  0  0  0  0
    2.9188    0.4309    0.5536 C   0  0  2  0  0  0  0  0  0  0  0  0
    1.9085   -0.3509   -0.1567 N   0  0  0  0  0  0  0  0  0  0  0  0
    1.9546   -1.7481   -0.2697 C   0  0  0  0  0  0  0  0  0  0  0  0
    2.9799   -2.3001    0.3049 O   0  0  0  0  0  0  0  0  0  0  0  0
    1.0489   -2.6683   -0.9268 C   0  0  2  0  0  0  0  0  0  0  0  0
    1.3208   -2.6685   -2.4481 C   0  0  0  0  0  0  0  0  0  0  0  0
    0.5798   -3.8344   -2.9681 C   0  0  0  0  0  0  0  0  0  0  0  0
    1.1161   -4.8505   -3.7242 C   0  0  0  0  0  0  0  0  0  0  0  0
    0.3206   -5.9216   -4.1542 C   0  0  0  0  0  0  0  0  0  0  0  0
   -1.0251   -5.9727   -3.8209 C   0  0  0  0  0  0  0  0  0  0  0  0
   -1.5691   -4.9366   -3.0509 C   0  0  0  0  0  0  0  0  0  0  0  0
   -0.7576   -3.8982   -2.6462 C   0  0  0  0  0  0  0  0  0  0  0  0
   -1.3176   -2.7825   -1.8391 C   0  0  0  0  0  0  0  0  0  0  0  0
   -0.3735   -2.4366   -0.7878 N   0  0  0  0  0  0  0  0  0  0  0  0
   -0.9349   -1.8679    0.3853 C   0  0  0  0  0  0  0  0  0  0  0  0
   -0.1793   -1.5575    1.3247 O   0  0  0  0  0  0  0  0  0  0  0  0
   -2.3734   -1.6025    0.5891 C   0  0  1  0  0  0  0  0  0  0  0  0
   -2.9614   -2.4824    1.6653 C   0  0  0  0  0  0  0  0  0  0  0  0
   -2.8847   -3.9154    1.4422 C   0  0  0  0  0  0  0  0  0  0  0  0
   -3.9090   -4.6183    0.8093 C   0  0  0  0  0  0  0  0  0  0  0  0
   -3.8706   -5.9675    0.5843 C   0  0  0  0  0  0  0  0  0  0  0  0
   -2.7657   -6.6966    0.9977 C   0  0  0  0  0  0  0  0  0  0  0  0
   -1.7371   -6.0503    1.6226 C   0  0  0  0  0  0  0  0  0  0  0  0
   -1.7797   -4.6710    1.8506 C   0  0  0  0  0  0  0  0  0  0  0  0
   -2.4057   -0.2361    1.2025 N   0  0  0  0  0  0  0  0  0  0  0  0
   -3.0046    0.8088    0.4959 C   0  0  0  0  0  0  0  0  0  0  0  0
   -3.5042    0.5860   -0.6442 O   0  0  0  0  0  0  0  0  0  0  0  0
   -3.0983    2.1214    0.9628 O   0  0  0  0  0  0  0  0  0  0  0  0
   -3.7394    3.0761    0.1154 C   0  0  0  0  0  0  0  0  0  0  0  0
   -3.8133    4.4275    0.6731 C   0  0  0  0  0  0  0  0  0  0  0  0
   -3.4067    4.8267    1.9019 C   0  0  0  0  0  0  0  0  0  0  0  0
   -3.5242    6.1434    2.3661 C   0  0  0  0  0  0  0  0  0  0  0  0
   -4.0798    7.0896    1.5399 C   0  0  0  0  0  0  0  0  0  0  0  0
   -4.5022    6.7208    0.2888 C   0  0  0  0  0  0  0  0  0  0  0  0
   -4.3770    5.4215   -0.1478 C   0  0  0  0  0  0  0  0  0  0  0  0
    2.4087    1.2669    1.6137 C   0  0  0  0  0  0  0  0  0  0  0  0
    1.1690    1.5072    1.8434 O   0  0  0  0  0  0  0  0  0  0  0  0
    3.2858    1.9599    2.5926 C   0  0  0  0  0  0  0  0  0  0  0  0
    4.5969    1.9026    2.6299 N   0  0  0  0  0  0  0  0  0  0  0  0
    5.2525    2.5440    3.5473 C   0  0  0  0  0  0  0  0  0  0  0  0
    4.5294    3.2710    4.4602 C   0  0  0  0  0  0  0  0  0  0  0  0
    2.9142    2.9676    3.9120 S   0  0  0  0  0  0  0  0  0  0  0  0
    6.1950    3.7750   -1.9594 H   0  0  0  0  0  0  0  0  0  0  0  0
    6.3363    4.1365   -0.1828 H   0  0  0  0  0  0  0  0  0  0  0  0
    3.4450    6.3577   -1.7847 H   0  0  0  0  0  0  0  0  0  0  0  0
    3.3153    4.3671    0.5930 H   0  0  0  0  0  0  0  0  0  0  0  0
    1.7075    3.0126   -0.5409 H   0  0  0  0  0  0  0  0  0  0  0  0
    2.3117    3.6699   -2.0542 H   0  0  0  0  0  0  0  0  0  0  0  0
    4.2108    2.2000   -2.1438 H   0  0  0  0  0  0  0  0  0  0  0  0
    2.6731    1.3497   -2.2257 H   0  0  0  0  0  0  0  0  0  0  0  0
    4.4218    0.1405   -0.9331 H   0  0  0  0  0  0  0  0  0  0  0  0
    4.7039    1.5092    0.1336 H   0  0  0  0  0  0  0  0  0  0  0  0
    3.5403   -0.3852    1.0739 H   0  0  0  0  0  0  0  0  0  0  0  0
    1.1290    0.1767   -0.5908 H   0  0  0  0  0  0  0  0  0  0  0  0
    1.2584   -3.7120   -0.5936 H   0  0  0  0  0  0  0  0  0  0  0  0
    0.9358   -1.7136   -2.8381 H   0  0  0  0  0  0  0  0  0  0  0  0
    2.3804   -2.7828   -2.6746 H   0  0  0  0  0  0  0  0  0  0  0  0
    2.1763   -4.7817   -3.9706 H   0  0  0  0  0  0  0  0  0  0  0  0
    0.7602   -6.7040   -4.7476 H   0  0  0  0  0  0  0  0  0  0  0  0
   -1.6261   -6.8164   -4.1598 H   0  0  0  0  0  0  0  0  0  0  0  0
   -2.6095   -5.0035   -2.8106 H   0  0  0  0  0  0  0  0  0  0  0  0
   -2.3150   -3.0549   -1.4380 H   0  0  0  0  0  0  0  0  0  0  0  0
   -1.3723   -1.8880   -2.5129 H   0  0  0  0  0  0  0  0  0  0  0  0
   -2.8947   -1.5887   -0.3556 H   0  0  0  0  0  0  0  0  0  0  0  0
   -2.4295   -2.2337    2.6319 H   0  0  0  0  0  0  0  0  0  0  0  0
   -4.0306   -2.2050    1.8658 H   0  0  0  0  0  0  0  0  0  0  0  0
   -4.7629   -4.0205    0.4979 H   0  0  0  0  0  0  0  0  0  0  0  0
   -4.6851   -6.4887    0.0895 H   0  0  0  0  0  0  0  0  0  0  0  0
   -2.7649   -7.7645    0.8084 H   0  0  0  0  0  0  0  0  0  0  0  0
   -0.8737   -6.6510    1.9425 H   0  0  0  0  0  0  0  0  0  0  0  0
   -0.9558   -4.1686    2.3447 H   0  0  0  0  0  0  0  0  0  0  0  0
   -1.9867   -0.0841    2.1349 H   0  0  0  0  0  0  0  0  0  0  0  0
   -3.1702    3.1197   -0.8418 H   0  0  0  0  0  0  0  0  0  0  0  0
   -4.7637    2.6670   -0.1459 H   0  0  0  0  0  0  0  0  0  0  0  0
   -2.9741    4.1021    2.5555 H   0  0  0  0  0  0  0  0  0  0  0  0
   -3.1828    6.3915    3.3519 H   0  0  0  0  0  0  0  0  0  0  0  0
   -4.1632    8.0919    1.9050 H   0  0  0  0  0  0  0  0  0  0  0  0
   -4.9426    7.4658   -0.3645 H   0  0  0  0  0  0  0  0  0  0  0  0
   -4.7140    5.1678   -1.1269 H   0  0  0  0  0  0  0  0  0  0  0  0
    6.3682    2.5041    3.5909 H   0  0  0  0  0  0  0  0  0  0  0  0
    4.9070    3.8684    5.3059 H   0  0  0  0  0  0  0  0  0  0  0  0
  1  2  1  0
  2  3  2  3
  2  4  1  0
  4  5  1  0
  5  6  1  0
  6  7  1  0
  7  8  1  0
  8  9  1  0
  9 10  1  0
 10 11  2  0
 10 12  1  0
 12 13  1  0
 13 14  1  0
 14 15  2  0
 15 16  1  0
 16 17  2  0
 17 18  1  0
 18 19  2  0
 19 20  1  0
 20 21  1  0
 21 22  1  0
 22 23  2  0
 22 24  1  0
 24 25  1  0
 25 26  1  0
 26 27  2  0
 27 28  1  0
 28 29  2  0
 29 30  1  0
 30 31  2  0
 24 32  1  0
 32 33  1  0
 33 34  2  0
 33 35  1  0
 35 36  1  0
 36 37  1  0
 37 38  2  0
 38 39  1  0
 39 40  2  0
 40 41  1  0
 41 42  2  0
  8 43  1  0
 43 44  2  0
 43 45  1  0
 45 46  2  0
 46 47  1  0
 47 48  2  0
 48 49  1  0
 21 12  1  0
 31 26  1  0
 42 37  1  0
 49 45  1  0
 19 14  1  0
  1 50  1  0
  1 51  1  0
  3 52  1  0
  4 53  1  0
  5 54  1  0
  5 55  1  0
  6 56  1  0
  6 57  1  0
  7 58  1  0
  7 59  1  0
  8 60  1  1
  9 61  1  0
 12 62  1  1
 13 63  1  0
 13 64  1  0
 15 65  1  0
 16 66  1  0
 17 67  1  0
 18 68  1  0
 20 69  1  0
 20 70  1  0
 24 71  1  6
 25 72  1  0
 25 73  1  0
 27 74  1  0
 28 75  1  0
 29 76  1  0
 30 77  1  0
 31 78  1  0
 32 79  1  0
 36 80  1  0
 36 81  1  0
 38 82  1  0
 39 83  1  0
 40 84  1  0
 41 85  1  0
 42 86  1  0
 47 87  1  0
 48 88  1  0
M  END
$$$$
[H]c1nn2c(N([H])C3([H])C([H])([H])C3([H])[H])c([H])c(N([H])c3c([H])c([H])c(N4C([H])([H])C([H])([H])N(C(=O)C([H])([H])[H])C([H])([H])C4([H])[H])c(N([H])C(=O)C([H])([H])[H])c3[H])nc2c1C#N
     RDKit          3D

 62 66  0  0  0  0  0  0  0  0999 V2000
   -7.7484   -1.5860    1.4169 C   0  0  0  0  0  0  0  0  0  0  0  0
   -7.2591   -1.2919    0.0659 C   0  0  0  0  0  0  0  0  0  0  0  0
   -7.8091   -1.8260   -0.9521 O   0  0  0  0  0  0  0  0  0  0  0  0
   -6.1786   -0.4197   -0.1407 N   0  0  0  0  0  0  0  0  0  0  0  0
   -5.5258    0.2079    0.9845 C   0  0  0  0  0  0  0  0  0  0  0  0
   -4.0763   -0.1442    0.9595 C   0  0  0  0  0  0  0  0  0  0  0  0
   -3.4653   -0.1274   -0.3424 N   0  0  0  0  0  0  0  0  0  0  0  0
   -4.1855   -0.3244   -1.5627 C   0  0  0  0  0  0  0  0  0  0  0  0
   -5.6528   -0.0932   -1.4546 C   0  0  0  0  0  0  0  0  0  0  0  0
   -2.0496    0.0961   -0.4096 C   0  0  0  0  0  0  0  0  0  0  0  0
   -1.2145   -0.9544   -0.7224 C   0  0  0  0  0  0  0  0  0  0  0  0
    0.1692   -0.8405   -0.7758 C   0  0  0  0  0  0  0  0  0  0  0  0
    0.7707    0.3594   -0.5099 C   0  0  0  0  0  0  0  0  0  0  0  0
    2.1802    0.5896   -0.5084 N   0  0  0  0  0  0  0  0  0  0  0  0
    3.1780   -0.3742   -0.3905 C   0  0  0  0  0  0  0  0  0  0  0  0
    4.5164    0.0466   -0.4499 C   0  0  0  0  0  0  0  0  0  0  0  0
    5.5404   -0.8616   -0.3207 C   0  0  0  0  0  0  0  0  0  0  0  0
    6.8969   -0.4218   -0.3835 N   0  0  0  0  0  0  0  0  0  0  0  0
    7.2653    0.9456   -0.5804 C   0  0  0  0  0  0  0  0  0  0  0  0
    8.7365    1.2398   -0.6167 C   0  0  0  0  0  0  0  0  0  0  0  0
    7.8845    1.7523    0.5011 C   0  0  0  0  0  0  0  0  0  0  0  0
    5.2624   -2.1585   -0.1366 N   0  0  0  0  0  0  0  0  0  0  0  0
    6.0721   -3.1941    0.0105 N   0  0  0  0  0  0  0  0  0  0  0  0
    5.3604   -4.3147    0.1694 C   0  0  0  0  0  0  0  0  0  0  0  0
    4.0357   -3.9663    0.1196 C   0  0  0  0  0  0  0  0  0  0  0  0
    2.9307   -4.8612    0.2463 C   0  0  0  0  0  0  0  0  0  0  0  0
    2.0244   -5.5691    0.3466 N   0  0  0  0  0  0  0  0  0  0  0  0
    3.9751   -2.6017   -0.0741 C   0  0  0  0  0  0  0  0  0  0  0  0
    3.0173   -1.6924   -0.2034 N   0  0  0  0  0  0  0  0  0  0  0  0
   -0.0880    1.4302   -0.1919 C   0  0  0  0  0  0  0  0  0  0  0  0
   -1.4582    1.3219   -0.1388 C   0  0  0  0  0  0  0  0  0  0  0  0
   -2.2985    2.4265    0.1418 N   0  0  0  0  0  0  0  0  0  0  0  0
   -1.9461    3.7227    0.5348 C   0  0  0  0  0  0  0  0  0  0  0  0
   -3.0515    4.7166    0.7677 C   0  0  0  0  0  0  0  0  0  0  0  0
   -0.7944    4.1075    0.7035 O   0  0  0  0  0  0  0  0  0  0  0  0
   -8.4722   -2.4516    1.3599 H   0  0  0  0  0  0  0  0  0  0  0  0
   -8.2592   -0.7131    1.8829 H   0  0  0  0  0  0  0  0  0  0  0  0
   -6.9537   -1.9002    2.1269 H   0  0  0  0  0  0  0  0  0  0  0  0
   -5.6252    1.3167    0.8842 H   0  0  0  0  0  0  0  0  0  0  0  0
   -5.9363   -0.1397    1.9656 H   0  0  0  0  0  0  0  0  0  0  0  0
   -3.9478   -1.1928    1.3847 H   0  0  0  0  0  0  0  0  0  0  0  0
   -3.5158    0.5304    1.6670 H   0  0  0  0  0  0  0  0  0  0  0  0
   -3.8043    0.3629   -2.3725 H   0  0  0  0  0  0  0  0  0  0  0  0
   -4.0341   -1.3919   -1.8782 H   0  0  0  0  0  0  0  0  0  0  0  0
   -5.9037    0.9743   -1.6329 H   0  0  0  0  0  0  0  0  0  0  0  0
   -6.1784   -0.7634   -2.1752 H   0  0  0  0  0  0  0  0  0  0  0  0
   -1.6823   -1.9110   -0.9344 H   0  0  0  0  0  0  0  0  0  0  0  0
    0.7652   -1.7028   -1.0428 H   0  0  0  0  0  0  0  0  0  0  0  0
    2.5025    1.6109   -0.6134 H   0  0  0  0  0  0  0  0  0  0  0  0
    4.7478    1.0861   -0.5972 H   0  0  0  0  0  0  0  0  0  0  0  0
    7.6383   -1.1427   -0.2794 H   0  0  0  0  0  0  0  0  0  0  0  0
    6.6096    1.4775   -1.3174 H   0  0  0  0  0  0  0  0  0  0  0  0
    9.4404    0.4195   -0.3199 H   0  0  0  0  0  0  0  0  0  0  0  0
    9.0545    1.9415   -1.4021 H   0  0  0  0  0  0  0  0  0  0  0  0
    7.7069    2.8447    0.4931 H   0  0  0  0  0  0  0  0  0  0  0  0
    7.9480    1.2432    1.4960 H   0  0  0  0  0  0  0  0  0  0  0  0
    5.8155   -5.2963    0.3088 H   0  0  0  0  0  0  0  0  0  0  0  0
    0.4330    2.3487    0.0050 H   0  0  0  0  0  0  0  0  0  0  0  0
   -3.3593    2.2143    0.0100 H   0  0  0  0  0  0  0  0  0  0  0  0
   -3.8407    4.2271    1.3921 H   0  0  0  0  0  0  0  0  0  0  0  0
   -3.4665    5.0889   -0.1881 H   0  0  0  0  0  0  0  0  0  0  0  0
   -2.6968    5.5792    1.3422 H   0  0  0  0  0  0  0  0  0  0  0  0
  1  2  1  0
  2  3  2  0
  2  4  1  0
  4  5  1  0
  5  6  1  0
  6  7  1  0
  7  8  1  0
  8  9  1  0
  7 10  1  0
 10 11  2  0
 11 12  1  0
 12 13  2  0
 13 14  1  0
 14 15  1  0
 15 16  1  0
 16 17  2  0
 17 18  1  0
 18 19  1  0
 19 20  1  0
 20 21  1  0
 17 22  1  0
 22 23  1  0
 23 24  2  0
 24 25  1  0
 25 26  1  0
 26 27  3  0
 25 28  2  0
 28 29  1  0
 13 30  1  0
 30 31  2  0
 31 32  1  0
 32 33  1  0
 33 34  1  0
 33 35  2  0
  9  4  1  0
 31 10  1  0
 29 15  2  0
 21 19  1  0
 28 22  1  0
  1 36  1  0
  1 37  1  0
  1 38  1  0
  5 39  1  0
  5 40  1  0
  6 41  1  0
  6 42  1  0
  8 43  1  0
  8 44  1  0
  9 45  1  0
  9 46  1  0
 11 47  1  0
 12 48  1  0
 14 49  1  0
 16 50  1  0
 18 51  1  0
 19 52  1  0
 20 53  1  0
 20 54  1  0
 21 55  1  0
 21 56  1  0
 24 57  1  0
 30 58  1  0
 32 59  1  0
 34 60  1  0
 34 61  1  0
 34 62  1  0
M  END
$$$$
