[H]c1nc(N([H])[H])c(-c2nn(-c3c(Cl)c(OC([H])([H])[H])c([H])c(OC([H])([H])[H])c3Cl)c(=O)c([H])c2[H])nc1-c1c([H])nn(C2([H])C([H])([H])C([H])([H])N([H])C([H])([H])C2([H])[H])c1[H]


 40 44  0  0  0  0  0  0  0  0999 V2000
   -2.3241   22.8082  -26.3294 C   0  0  0  0  0  0  0  0  0  0  0  0
   -1.7422   22.4284  -25.1560 N   0  0  0  0  0  0  0  0  0  0  0  0
   -0.4517   22.1170  -25.0795 C   0  0  0  0  0  0  0  0  0  0  0  0
    0.3071   22.1818  -26.2152 C   0  0  0  0  0  0  0  0  0  0  0  0
   -0.2108   22.5517  -27.4124 N   0  0  0  0  0  0  0  0  0  0  0  0
   -1.5236   22.8582  -27.4403 C   0  0  0  0  0  0  0  0  0  0  0  0
   -2.0820   23.2432  -28.6706 N   0  0  0  0  0  0  0  0  0  0  0  0
   -2.4112   22.4877  -29.3113 H   0  0  0  0  0  0  0  0  0  0  0  0
   -2.1524   24.2433  -28.9076 H   0  0  0  0  0  0  0  0  0  0  0  0
   -5.7528   23.6132  -25.3550 N   0  0  0  0  0  0  0  0  0  0  0  0
   -4.4565   23.3007  -25.2939 N   0  0  0  0  0  0  0  0  0  0  0  0
   -3.7288   23.1482  -26.4135 C   0  0  0  0  0  0  0  0  0  0  0  0
   -4.3486   23.3215  -27.6274 C   0  0  0  0  0  0  0  0  0  0  0  0
   -5.6929   23.6463  -27.7101 C   0  0  0  0  0  0  0  0  0  0  0  0
   -6.3836   23.7883  -26.5243 C   0  0  0  0  0  0  0  0  0  0  0  0
   -7.6028   24.0817  -26.5450 O   0  0  0  0  0  0  0  0  0  0  0  0
   -7.5026   22.7374  -22.1945 C   0  0  0  0  0  0  0  0  0  0  0  0
   -7.7873   23.9911  -21.7134 C   0  0  0  0  0  0  0  0  0  0  0  0
   -7.4125   25.1362  -22.4092 C   0  0  0  0  0  0  0  0  0  0  0  0
   -6.7475   24.9884  -23.5952 C   0  0  0  0  0  0  0  0  0  0  0  0
   -6.2731   26.4251  -24.4749 Cl  0  0  0  0  0  0  0  0  0  0  0  0
   -6.4437   23.7501  -24.1112 C   0  0  0  0  0  0  0  0  0  0  0  0
   -6.8334   22.6262  -23.3888 C   0  0  0  0  0  0  0  0  0  0  0  0
   -6.4594   21.0465  -24.0260 Cl  0  0  0  0  0  0  0  0  0  0  0  0
   -8.6134   21.5529  -20.3136 C   0  0  0  0  0  0  0  0  0  0  0  0
   -7.8826   21.6282  -21.4887 O   0  0  0  0  0  0  0  0  0  0  0  0
   -7.7077   26.3909  -21.9092 O   0  0  0  0  0  0  0  0  0  0  0  0
   -8.4173   26.4851  -20.6951 C   0  0  0  0  0  0  0  0  0  0  0  0
    0.1391   21.7200  -23.8171 C   0  0  0  0  0  0  0  0  0  0  0  0
   -0.5369   21.6253  -22.6027 C   0  0  0  0  0  0  0  0  0  0  0  0
    0.3541   21.2271  -21.6767 N   0  0  0  0  0  0  0  0  0  0  0  0
    1.5535   21.0665  -22.2430 N   0  0  0  0  0  0  0  0  0  0  0  0
    1.4428   21.3606  -23.5400 C   0  0  0  0  0  0  0  0  0  0  0  0
    2.7820   20.6454  -21.5866 C   0  0  0  0  0  0  0  0  0  0  0  0
    3.6027   19.8825  -22.5732 C   0  0  0  0  0  0  0  0  0  0  0  0
    4.0559   18.5318  -22.0690 C   0  0  0  0  0  0  0  0  0  0  0  0
    2.9954   17.7491  -21.5179 N   0  0  0  0  0  0  0  0  0  0  0  0
    2.0245   18.4819  -20.7707 C   0  0  0  0  0  0  0  0  0  0  0  0
    2.4892   19.8451  -20.3365 C   0  0  0  0  0  0  0  0  0  0  0  0
    2.5289   17.1013  -22.1783 H   0  0  0  0  0  0  0  0  0  0  0  0
 25 26  1  0  0  0
 26 17  1  0  0  0
 17 18  2  0  0  0
 18 19  1  0  0  0
 19 27  1  0  0  0
 27 28  1  0  0  0
 19 20  2  0  0  0
 20 21  1  0  0  0
 20 22  1  0  0  0
 22 23  2  0  0  0
 23 24  1  0  0  0
 22 10  1  0  0  0
 10 11  1  0  0  0
 11 12  2  0  0  0
 12 13  1  0  0  0
 13 14  2  0  0  0
 14 15  1  0  0  0
 15 16  2  0  0  0
 12  1  1  0  0  0
  1  2  2  0  0  0
  2  3  1  0  0  0
  3  4  2  0  0  0
  4  5  1  0  0  0
  5  6  2  0  0  0
  6  7  1  0  0  0
  3 29  1  0  0  0
 29 30  1  0  0  0
 30 31  2  0  0  0
 31 32  1  0  0  0
 32 33  1  0  0  0
 32 34  1  0  0  0
 34 35  1  0  0  0
 35 36  1  0  0  0
 36 37  1  0  0  0
 37 38  1  0  0  0
 38 39  1  0  0  0
 23 17  1  0  0  0
 15 10  1  0  0  0
  6  1  1  0  0  0
 33 29  2  0  0  0
 39 34  1  0  0  0
  7  8  1  0  0  0
  7  9  1  0  0  0
 37 40  1  0  0  0
M  END
> <minimizedAffinity>
-9.75548

> <CNNscore>
0.7629292607

> <CNNaffinity>
8.0790271759

> <CNN_VS>
6.1637263298

> <CNNaffinity_variance>
0.1927157193

$$$$
[H]c1nc(N([H])[H])c(-c2nn(-c3c(Cl)c(OC([H])([H])[H])c([H])c(OC([H])([H])[H])c3Cl)c(=O)c([H])c2[H])nc1-c1c([H])nn(C2([H])C([H])([H])C([H])([H])N([H])C([H])([H])C2([H])[H])c1[H]


 40 44  0  0  0  0  0  0  0  0999 V2000
   -2.3520   22.8330  -26.2785 C   0  0  0  0  0  0  0  0  0  0  0  0
   -1.7735   22.4475  -25.1053 N   0  0  0  0  0  0  0  0  0  0  0  0
   -0.4850   22.1280  -25.0281 C   0  0  0  0  0  0  0  0  0  0  0  0
    0.2752   22.1901  -26.1631 C   0  0  0  0  0  0  0  0  0  0  0  0
   -0.2393   22.5654  -27.3601 N   0  0  0  0  0  0  0  0  0  0  0  0
   -1.5502   22.8800  -27.3886 C   0  0  0  0  0  0  0  0  0  0  0  0
   -2.1051   23.2706  -28.6187 N   0  0  0  0  0  0  0  0  0  0  0  0
   -2.4385   22.5184  -29.2610 H   0  0  0  0  0  0  0  0  0  0  0  0
   -2.1691   24.2715  -28.8540 H   0  0  0  0  0  0  0  0  0  0  0  0
   -5.7826   23.6326  -25.3065 N   0  0  0  0  0  0  0  0  0  0  0  0
   -4.4883   23.3123  -25.2448 N   0  0  0  0  0  0  0  0  0  0  0  0
   -3.7545   23.1819  -26.3632 C   0  0  0  0  0  0  0  0  0  0  0  0
   -4.3660   23.3859  -27.5766 C   0  0  0  0  0  0  0  0  0  0  0  0
   -5.7082   23.7191  -27.6598 C   0  0  0  0  0  0  0  0  0  0  0  0
   -6.4054   23.8375  -26.4753 C   0  0  0  0  0  0  0  0  0  0  0  0
   -7.6231   24.1374  -26.4966 O   0  0  0  0  0  0  0  0  0  0  0  0
   -7.4556   25.1218  -22.3399 C   0  0  0  0  0  0  0  0  0  0  0  0
   -7.8178   23.9842  -21.6627 C   0  0  0  0  0  0  0  0  0  0  0  0
   -7.5245   22.7193  -22.1627 C   0  0  0  0  0  0  0  0  0  0  0  0
   -6.8608   22.6290  -23.3551 C   0  0  0  0  0  0  0  0  0  0  0  0
   -6.4893   21.0406  -23.9894 Cl  0  0  0  0  0  0  0  0  0  0  0  0
   -6.4805   23.7446  -24.0641 C   0  0  0  0  0  0  0  0  0  0  0  0
   -6.7902   24.9938  -23.5347 C   0  0  0  0  0  0  0  0  0  0  0  0
   -6.3157   26.4214  -24.4169 Cl  0  0  0  0  0  0  0  0  0  0  0  0
   -8.5682   26.6703  -20.7464 C   0  0  0  0  0  0  0  0  0  0  0  0
   -7.7578   26.3533  -21.8250 O   0  0  0  0  0  0  0  0  0  0  0  0
   -7.8973   21.5844  -21.4667 O   0  0  0  0  0  0  0  0  0  0  0  0
   -8.7322   21.7259  -20.3400 C   0  0  0  0  0  0  0  0  0  0  0  0
    0.1022   21.7251  -23.7660 C   0  0  0  0  0  0  0  0  0  0  0  0
   -0.5741   21.6382  -22.5511 C   0  0  0  0  0  0  0  0  0  0  0  0
    0.3132   21.2308  -21.6255 N   0  0  0  0  0  0  0  0  0  0  0  0
    1.5104   21.0569  -22.1924 N   0  0  0  0  0  0  0  0  0  0  0  0
    1.4021   21.3517  -23.4895 C   0  0  0  0  0  0  0  0  0  0  0  0
    2.7347   20.6228  -21.5366 C   0  0  0  0  0  0  0  0  0  0  0  0
    3.5959   19.9471  -22.5518 C   0  0  0  0  0  0  0  0  0  0  0  0
    4.0723   18.5772  -22.1272 C   0  0  0  0  0  0  0  0  0  0  0  0
    3.0204   17.7343  -21.6539 N   0  0  0  0  0  0  0  0  0  0  0  0
    2.0150   18.3923  -20.8830 C   0  0  0  0  0  0  0  0  0  0  0  0
    2.4352   19.7344  -20.3492 C   0  0  0  0  0  0  0  0  0  0  0  0
    2.5850   17.1208  -22.3663 H   0  0  0  0  0  0  0  0  0  0  0  0
 25 26  1  0  0  0
 26 17  1  0  0  0
 17 18  2  0  0  0
 18 19  1  0  0  0
 19 27  1  0  0  0
 27 28  1  0  0  0
 19 20  2  0  0  0
 20 21  1  0  0  0
 20 22  1  0  0  0
 22 23  2  0  0  0
 23 24  1  0  0  0
 22 10  1  0  0  0
 10 11  1  0  0  0
 11 12  2  0  0  0
 12 13  1  0  0  0
 13 14  2  0  0  0
 14 15  1  0  0  0
 15 16  2  0  0  0
 12  1  1  0  0  0
  1  2  2  0  0  0
  2  3  1  0  0  0
  3  4  2  0  0  0
  4  5  1  0  0  0
  5  6  2  0  0  0
  6  7  1  0  0  0
  3 29  1  0  0  0
 29 30  1  0  0  0
 30 31  2  0  0  0
 31 32  1  0  0  0
 32 33  1  0  0  0
 32 34  1  0  0  0
 34 35  1  0  0  0
 35 36  1  0  0  0
 36 37  1  0  0  0
 37 38  1  0  0  0
 38 39  1  0  0  0
 23 17  1  0  0  0
 15 10  1  0  0  0
  6  1  1  0  0  0
 33 29  2  0  0  0
 39 34  1  0  0  0
  7  8  1  0  0  0
  7  9  1  0  0  0
 37 40  1  0  0  0
M  END
> <minimizedAffinity>
-9.68504

> <CNNscore>
0.7338899970

> <CNNaffinity>
8.0454730988

> <CNN_VS>
5.9044923782

> <CNNaffinity_variance>
0.2014638186

$$$$
[H]c1nc(N([H])[H])c(-c2nn(-c3c(Cl)c(OC([H])([H])[H])c([H])c(OC([H])([H])[H])c3Cl)c(=O)c([H])c2[H])nc1-c1c([H])nn(C2([H])C([H])([H])C([H])([H])N([H])C([H])([H])C2([H])[H])c1[H]


 40 44  0  0  0  0  0  0  0  0999 V2000
   -2.2748   22.7595  -26.2381 C   0  0  0  0  0  0  0  0  0  0  0  0
   -1.7066   22.3961  -25.0528 N   0  0  0  0  0  0  0  0  0  0  0  0
   -0.4172   22.0852  -24.9571 C   0  0  0  0  0  0  0  0  0  0  0  0
    0.3545   22.1335  -26.0849 C   0  0  0  0  0  0  0  0  0  0  0  0
   -0.1494   22.4867  -27.2930 N   0  0  0  0  0  0  0  0  0  0  0  0
   -1.4616   22.7934  -27.3403 C   0  0  0  0  0  0  0  0  0  0  0  0
   -2.0056   23.1610  -28.5823 N   0  0  0  0  0  0  0  0  0  0  0  0
   -2.3280   22.3967  -29.2159 H   0  0  0  0  0  0  0  0  0  0  0  0
   -2.0727   24.1577  -28.8342 H   0  0  0  0  0  0  0  0  0  0  0  0
   -5.7208   23.5510  -25.3151 N   0  0  0  0  0  0  0  0  0  0  0  0
   -4.4254   23.2393  -25.2348 N   0  0  0  0  0  0  0  0  0  0  0  0
   -3.6782   23.0989  -26.3431 C   0  0  0  0  0  0  0  0  0  0  0  0
   -4.2771   23.2838  -27.5657 C   0  0  0  0  0  0  0  0  0  0  0  0
   -5.6202   23.6081  -27.6684 C   0  0  0  0  0  0  0  0  0  0  0  0
   -6.3315   23.7374  -26.4934 C   0  0  0  0  0  0  0  0  0  0  0  0
   -7.5505   24.0297  -26.5322 O   0  0  0  0  0  0  0  0  0  0  0  0
   -7.4094   25.0680  -22.3716 C   0  0  0  0  0  0  0  0  0  0  0  0
   -7.7988   23.9366  -21.6990 C   0  0  0  0  0  0  0  0  0  0  0  0
   -7.5190   22.6670  -22.1948 C   0  0  0  0  0  0  0  0  0  0  0  0
   -6.8409   22.5656  -23.3781 C   0  0  0  0  0  0  0  0  0  0  0  0
   -6.4863   20.9712  -24.0070 Cl  0  0  0  0  0  0  0  0  0  0  0  0
   -6.4333   23.6747  -24.0822 C   0  0  0  0  0  0  0  0  0  0  0  0
   -6.7302   24.9289  -23.5572 C   0  0  0  0  0  0  0  0  0  0  0  0
   -6.2212   26.3484  -24.4333 Cl  0  0  0  0  0  0  0  0  0  0  0  0
   -8.4191   26.6286  -20.7222 C   0  0  0  0  0  0  0  0  0  0  0  0
   -7.6987   26.3044  -21.8610 O   0  0  0  0  0  0  0  0  0  0  0  0
   -7.9191   21.5384  -21.5036 O   0  0  0  0  0  0  0  0  0  0  0  0
   -8.7465   21.6957  -20.3734 C   0  0  0  0  0  0  0  0  0  0  0  0
    0.1589   21.7060  -23.6825 C   0  0  0  0  0  0  0  0  0  0  0  0
    1.4968   21.3850  -23.4637 C   0  0  0  0  0  0  0  0  0  0  0  0
    1.6313   21.0919  -22.1576 N   0  0  0  0  0  0  0  0  0  0  0  0
    0.4507   21.2110  -21.5435 N   0  0  0  0  0  0  0  0  0  0  0  0
   -0.4538   21.5825  -22.4516 C   0  0  0  0  0  0  0  0  0  0  0  0
    0.1704   20.9832  -20.1339 C   0  0  0  0  0  0  0  0  0  0  0  0
   -1.3023   20.7987  -19.9728 C   0  0  0  0  0  0  0  0  0  0  0  0
   -1.9130   21.6909  -18.9168 C   0  0  0  0  0  0  0  0  0  0  0  0
   -1.5455   23.0644  -19.0556 N   0  0  0  0  0  0  0  0  0  0  0  0
   -0.1982   23.2942  -19.4677 C   0  0  0  0  0  0  0  0  0  0  0  0
    0.7090   22.1092  -19.2789 C   0  0  0  0  0  0  0  0  0  0  0  0
   -2.1972   23.6471  -19.6116 H   0  0  0  0  0  0  0  0  0  0  0  0
 25 26  1  0  0  0
 26 17  1  0  0  0
 17 18  2  0  0  0
 18 19  1  0  0  0
 19 27  1  0  0  0
 27 28  1  0  0  0
 19 20  2  0  0  0
 20 21  1  0  0  0
 20 22  1  0  0  0
 22 23  2  0  0  0
 23 24  1  0  0  0
 22 10  1  0  0  0
 10 11  1  0  0  0
 11 12  2  0  0  0
 12 13  1  0  0  0
 13 14  2  0  0  0
 14 15  1  0  0  0
 15 16  2  0  0  0
 12  1  1  0  0  0
  1  2  2  0  0  0
  2  3  1  0  0  0
  3  4  2  0  0  0
  4  5  1  0  0  0
  5  6  2  0  0  0
  6  7  1  0  0  0
  3 29  1  0  0  0
 29 30  1  0  0  0
 30 31  2  0  0  0
 31 32  1  0  0  0
 32 33  1  0  0  0
 32 34  1  0  0  0
 34 35  1  0  0  0
 35 36  1  0  0  0
 36 37  1  0  0  0
 37 38  1  0  0  0
 38 39  1  0  0  0
 23 17  1  0  0  0
 15 10  1  0  0  0
  6  1  1  0  0  0
 33 29  2  0  0  0
 39 34  1  0  0  0
  7  8  1  0  0  0
  7  9  1  0  0  0
 37 40  1  0  0  0
M  END
> <minimizedAffinity>
-9.58089

> <CNNscore>
0.5659273267

> <CNNaffinity>
7.7932825089

> <CNN_VS>
4.4104313850

> <CNNaffinity_variance>
0.2340836525

$$$$
[H]c1nc(N([H])[H])c(-c2nn(-c3c(Cl)c(OC([H])([H])[H])c([H])c(OC([H])([H])[H])c3Cl)c(=O)c([H])c2[H])nc1-c1c([H])nn(C2([H])C([H])([H])C([H])([H])N([H])C([H])([H])C2([H])[H])c1[H]


 40 44  0  0  0  0  0  0  0  0999 V2000
   -2.2656   22.7357  -26.2072 C   0  0  0  0  0  0  0  0  0  0  0  0
   -1.7043   22.3717  -25.0189 N   0  0  0  0  0  0  0  0  0  0  0  0
   -0.4163   22.0568  -24.9166 C   0  0  0  0  0  0  0  0  0  0  0  0
    0.3609   22.1015  -26.0407 C   0  0  0  0  0  0  0  0  0  0  0  0
   -0.1360   22.4550  -27.2516 N   0  0  0  0  0  0  0  0  0  0  0  0
   -1.4470   22.7658  -27.3056 C   0  0  0  0  0  0  0  0  0  0  0  0
   -1.9840   23.1339  -28.5505 N   0  0  0  0  0  0  0  0  0  0  0  0
   -2.3057   22.3699  -29.1848 H   0  0  0  0  0  0  0  0  0  0  0  0
   -2.0467   24.1305  -28.8038 H   0  0  0  0  0  0  0  0  0  0  0  0
   -5.7066   23.5673  -25.3009 N   0  0  0  0  0  0  0  0  0  0  0  0
   -4.4127   23.2511  -25.2141 N   0  0  0  0  0  0  0  0  0  0  0  0
   -3.6675   23.0794  -26.3193 C   0  0  0  0  0  0  0  0  0  0  0  0
   -4.2667   23.2368  -27.5456 C   0  0  0  0  0  0  0  0  0  0  0  0
   -5.6083   23.5651  -27.6550 C   0  0  0  0  0  0  0  0  0  0  0  0
   -6.3177   23.7272  -26.4829 C   0  0  0  0  0  0  0  0  0  0  0  0
   -7.5352   24.0246  -26.5279 O   0  0  0  0  0  0  0  0  0  0  0  0
   -7.5259   22.7449  -22.1654 C   0  0  0  0  0  0  0  0  0  0  0  0
   -7.7990   24.0067  -21.6993 C   0  0  0  0  0  0  0  0  0  0  0  0
   -7.3937   25.1401  -22.3972 C   0  0  0  0  0  0  0  0  0  0  0  0
   -6.7103   24.9722  -23.5699 C   0  0  0  0  0  0  0  0  0  0  0  0
   -6.1975   26.3941  -24.4522 Cl  0  0  0  0  0  0  0  0  0  0  0  0
   -6.4172   23.7252  -24.0708 C   0  0  0  0  0  0  0  0  0  0  0  0
   -6.8375   22.6135  -23.3467 C   0  0  0  0  0  0  0  0  0  0  0  0
   -6.4775   21.0229  -23.9648 Cl  0  0  0  0  0  0  0  0  0  0  0  0
   -8.7394   21.5900  -20.3301 C   0  0  0  0  0  0  0  0  0  0  0  0
   -7.9359   21.6476  -21.4579 O   0  0  0  0  0  0  0  0  0  0  0  0
   -7.6776   26.4033  -21.9124 O   0  0  0  0  0  0  0  0  0  0  0  0
   -8.4942   26.5211  -20.7696 C   0  0  0  0  0  0  0  0  0  0  0  0
    0.1524   21.6771  -23.6389 C   0  0  0  0  0  0  0  0  0  0  0  0
    1.4916   21.3690  -23.4098 C   0  0  0  0  0  0  0  0  0  0  0  0
    1.6177   21.0706  -22.1041 N   0  0  0  0  0  0  0  0  0  0  0  0
    0.4306   21.1743  -21.4999 N   0  0  0  0  0  0  0  0  0  0  0  0
   -0.4698   21.5409  -22.4142 C   0  0  0  0  0  0  0  0  0  0  0  0
    0.1402   20.9363  -20.0940 C   0  0  0  0  0  0  0  0  0  0  0  0
   -1.3422   20.9138  -19.9189 C   0  0  0  0  0  0  0  0  0  0  0  0
   -1.8380   21.8361  -18.8292 C   0  0  0  0  0  0  0  0  0  0  0  0
   -1.3193   23.1633  -18.9325 N   0  0  0  0  0  0  0  0  0  0  0  0
    0.0412   23.2526  -19.3554 C   0  0  0  0  0  0  0  0  0  0  0  0
    0.8107   21.9679  -19.2135 C   0  0  0  0  0  0  0  0  0  0  0  0
   -1.9066   23.8323  -19.4625 H   0  0  0  0  0  0  0  0  0  0  0  0
 25 26  1  0  0  0
 26 17  1  0  0  0
 17 18  2  0  0  0
 18 19  1  0  0  0
 19 27  1  0  0  0
 27 28  1  0  0  0
 19 20  2  0  0  0
 20 21  1  0  0  0
 20 22  1  0  0  0
 22 23  2  0  0  0
 23 24  1  0  0  0
 22 10  1  0  0  0
 10 11  1  0  0  0
 11 12  2  0  0  0
 12 13  1  0  0  0
 13 14  2  0  0  0
 14 15  1  0  0  0
 15 16  2  0  0  0
 12  1  1  0  0  0
  1  2  2  0  0  0
  2  3  1  0  0  0
  3  4  2  0  0  0
  4  5  1  0  0  0
  5  6  2  0  0  0
  6  7  1  0  0  0
  3 29  1  0  0  0
 29 30  1  0  0  0
 30 31  2  0  0  0
 31 32  1  0  0  0
 32 33  1  0  0  0
 32 34  1  0  0  0
 34 35  1  0  0  0
 35 36  1  0  0  0
 36 37  1  0  0  0
 37 38  1  0  0  0
 38 39  1  0  0  0
 23 17  1  0  0  0
 15 10  1  0  0  0
  6  1  1  0  0  0
 33 29  2  0  0  0
 39 34  1  0  0  0
  7  8  1  0  0  0
  7  9  1  0  0  0
 37 40  1  0  0  0
M  END
> <minimizedAffinity>
-9.61407

> <CNNscore>
0.5391401052

> <CNNaffinity>
7.7770600319

> <CNN_VS>
4.1929249763

> <CNNaffinity_variance>
0.2415590733

$$$$
[H]c1nc(N([H])[H])c(-c2nn(-c3c(Cl)c(OC([H])([H])[H])c([H])c(OC([H])([H])[H])c3Cl)c(=O)c([H])c2[H])nc1-c1c([H])nn(C2([H])C([H])([H])C([H])([H])N([H])C([H])([H])C2([H])[H])c1[H]


 40 44  0  0  0  0  0  0  0  0999 V2000
   -0.4380   22.0377  -23.9447 C   0  0  0  0  0  0  0  0  0  0  0  0
   -1.6007   22.4793  -24.5041 N   0  0  0  0  0  0  0  0  0  0  0  0
   -1.7096   22.7117  -25.8089 C   0  0  0  0  0  0  0  0  0  0  0  0
   -0.6191   22.4995  -26.6060 C   0  0  0  0  0  0  0  0  0  0  0  0
    0.5652   22.0615  -26.1122 N   0  0  0  0  0  0  0  0  0  0  0  0
    0.6271   21.8396  -24.7836 C   0  0  0  0  0  0  0  0  0  0  0  0
    1.8450   21.3865  -24.2496 N   0  0  0  0  0  0  0  0  0  0  0  0
    2.5611   22.1033  -23.9988 H   0  0  0  0  0  0  0  0  0  0  0  0
    2.0002   20.3763  -24.1203 H   0  0  0  0  0  0  0  0  0  0  0  0
    0.7157   20.6638  -20.7612 N   0  0  0  0  0  0  0  0  0  0  0  0
    0.5941   20.9094  -22.0676 N   0  0  0  0  0  0  0  0  0  0  0  0
   -0.3187   21.7836  -22.5245 C   0  0  0  0  0  0  0  0  0  0  0  0
   -1.1277   22.4222  -21.6159 C   0  0  0  0  0  0  0  0  0  0  0  0
   -1.0156   22.1800  -20.2564 C   0  0  0  0  0  0  0  0  0  0  0  0
   -0.0591   21.2716  -19.8523 C   0  0  0  0  0  0  0  0  0  0  0  0
    0.0822   21.0173  -18.6324 O   0  0  0  0  0  0  0  0  0  0  0  0
    2.3444   17.4373  -19.8927 C   0  0  0  0  0  0  0  0  0  0  0  0
    3.6167   17.8695  -19.6126 C   0  0  0  0  0  0  0  0  0  0  0  0
    3.9613   19.2144  -19.7044 C   0  0  0  0  0  0  0  0  0  0  0  0
    2.9981   20.1084  -20.0831 C   0  0  0  0  0  0  0  0  0  0  0  0
    3.4256   21.8015  -20.2007 Cl  0  0  0  0  0  0  0  0  0  0  0  0
    1.7120   19.7156  -20.3720 C   0  0  0  0  0  0  0  0  0  0  0  0
    1.4022   18.3626  -20.2701 C   0  0  0  0  0  0  0  0  0  0  0  0
   -0.2233   17.8434  -20.6306 Cl  0  0  0  0  0  0  0  0  0  0  0  0
    1.6195   15.3909  -18.6836 C   0  0  0  0  0  0  0  0  0  0  0  0
    2.0333   16.1081  -19.7950 O   0  0  0  0  0  0  0  0  0  0  0  0
    5.2481   19.6315  -19.4185 O   0  0  0  0  0  0  0  0  0  0  0  0
    6.2310   19.5289  -20.4234 C   0  0  0  0  0  0  0  0  0  0  0  0
   -2.9599   23.1774  -26.3746 C   0  0  0  0  0  0  0  0  0  0  0  0
   -3.5782   22.6551  -27.5085 C   0  0  0  0  0  0  0  0  0  0  0  0
   -4.7112   23.3530  -27.7060 N   0  0  0  0  0  0  0  0  0  0  0  0
   -4.8388   24.2857  -26.7579 N   0  0  0  0  0  0  0  0  0  0  0  0
   -3.7868   24.1946  -25.9419 C   0  0  0  0  0  0  0  0  0  0  0  0
   -5.9231   25.2454  -26.6144 C   0  0  0  0  0  0  0  0  0  0  0  0
   -5.4561   26.3510  -25.7266 C   0  0  0  0  0  0  0  0  0  0  0  0
   -6.3913   26.6398  -24.5751 C   0  0  0  0  0  0  0  0  0  0  0  0
   -6.7649   25.4711  -23.8433 N   0  0  0  0  0  0  0  0  0  0  0  0
   -6.9732   24.3004  -24.6333 C   0  0  0  0  0  0  0  0  0  0  0  0
   -7.1794   24.5798  -26.0969 C   0  0  0  0  0  0  0  0  0  0  0  0
   -6.1740   25.2511  -23.0211 H   0  0  0  0  0  0  0  0  0  0  0  0
 25 26  1  0  0  0
 26 17  1  0  0  0
 17 18  2  0  0  0
 18 19  1  0  0  0
 19 27  1  0  0  0
 27 28  1  0  0  0
 19 20  2  0  0  0
 20 21  1  0  0  0
 20 22  1  0  0  0
 22 23  2  0  0  0
 23 24  1  0  0  0
 22 10  1  0  0  0
 10 11  1  0  0  0
 11 12  2  0  0  0
 12 13  1  0  0  0
 13 14  2  0  0  0
 14 15  1  0  0  0
 15 16  2  0  0  0
 12  1  1  0  0  0
  1  2  2  0  0  0
  2  3  1  0  0  0
  3  4  2  0  0  0
  4  5  1  0  0  0
  5  6  2  0  0  0
  6  7  1  0  0  0
  3 29  1  0  0  0
 29 30  1  0  0  0
 30 31  2  0  0  0
 31 32  1  0  0  0
 32 33  1  0  0  0
 32 34  1  0  0  0
 34 35  1  0  0  0
 35 36  1  0  0  0
 36 37  1  0  0  0
 37 38  1  0  0  0
 38 39  1  0  0  0
 23 17  1  0  0  0
 15 10  1  0  0  0
  6  1  1  0  0  0
 33 29  2  0  0  0
 39 34  1  0  0  0
  7  8  1  0  0  0
  7  9  1  0  0  0
 37 40  1  0  0  0
M  END
> <minimizedAffinity>
-7.76549

> <CNNscore>
0.3798800111

> <CNNaffinity>
7.3620362282

> <CNN_VS>
2.7966904640

> <CNNaffinity_variance>
0.1672598571

$$$$
[H]c1nc(N([H])[H])c(-c2nn(-c3c(Cl)c(OC([H])([H])[H])c([H])c(OC([H])([H])[H])c3Cl)c(=O)c([H])c2[H])nc1-c1c([H])nn(C2([H])C([H])([H])C([H])([H])N([H])C([H])([H])C2([H])[H])c1[H]


 40 44  0  0  0  0  0  0  0  0999 V2000
    0.3246   18.4962  -20.4435 C   0  0  0  0  0  0  0  0  0  0  0  0
   -0.5662   17.5274  -20.0861 N   0  0  0  0  0  0  0  0  0  0  0  0
   -0.1837   16.2795  -19.8316 C   0  0  0  0  0  0  0  0  0  0  0  0
    1.1436   15.9667  -19.9339 C   0  0  0  0  0  0  0  0  0  0  0  0
    2.0790   16.8833  -20.2847 N   0  0  0  0  0  0  0  0  0  0  0  0
    1.6433   18.1350  -20.5328 C   0  0  0  0  0  0  0  0  0  0  0  0
    2.5951   19.1011  -20.8992 N   0  0  0  0  0  0  0  0  0  0  0  0
    2.8560   19.1667  -21.9078 H   0  0  0  0  0  0  0  0  0  0  0  0
    3.0058   19.7111  -20.1778 H   0  0  0  0  0  0  0  0  0  0  0  0
   -0.8470   21.4591  -22.2329 N   0  0  0  0  0  0  0  0  0  0  0  0
   -0.4623   20.2100  -21.9619 N   0  0  0  0  0  0  0  0  0  0  0  0
   -0.0909   19.8552  -20.7200 C   0  0  0  0  0  0  0  0  0  0  0  0
   -0.1156   20.8080  -19.7305 C   0  0  0  0  0  0  0  0  0  0  0  0
   -0.5123   22.1092  -19.9931 C   0  0  0  0  0  0  0  0  0  0  0  0
   -0.8811   22.4091  -21.2882 C   0  0  0  0  0  0  0  0  0  0  0  0
   -1.2481   23.5729  -21.5777 O   0  0  0  0  0  0  0  0  0  0  0  0
   -2.9383   22.0574  -25.2471 C   0  0  0  0  0  0  0  0  0  0  0  0
   -1.9619   22.2758  -26.1867 C   0  0  0  0  0  0  0  0  0  0  0  0
   -0.6121   22.2333  -25.8519 C   0  0  0  0  0  0  0  0  0  0  0  0
   -0.2718   21.9665  -24.5543 C   0  0  0  0  0  0  0  0  0  0  0  0
    1.4245   21.9120  -24.1269 Cl  0  0  0  0  0  0  0  0  0  0  0  0
   -1.2198   21.7418  -23.5835 C   0  0  0  0  0  0  0  0  0  0  0  0
   -2.5605   21.7923  -23.9535 C   0  0  0  0  0  0  0  0  0  0  0  0
   -3.7788   21.5089  -22.7382 Cl  0  0  0  0  0  0  0  0  0  0  0  0
   -4.9596   23.1396  -26.2055 C   0  0  0  0  0  0  0  0  0  0  0  0
   -4.2586   22.1061  -25.6044 O   0  0  0  0  0  0  0  0  0  0  0  0
    0.3578   22.4559  -26.8117 O   0  0  0  0  0  0  0  0  0  0  0  0
   -0.0379   22.9514  -28.0704 C   0  0  0  0  0  0  0  0  0  0  0  0
   -1.1535   15.2724  -19.4505 C   0  0  0  0  0  0  0  0  0  0  0  0
   -0.8834   14.1372  -18.6894 C   0  0  0  0  0  0  0  0  0  0  0  0
   -2.0380   13.4602  -18.5539 N   0  0  0  0  0  0  0  0  0  0  0  0
   -3.0192   14.1080  -19.1884 N   0  0  0  0  0  0  0  0  0  0  0  0
   -2.5023   15.2088  -19.7379 C   0  0  0  0  0  0  0  0  0  0  0  0
   -4.4154   13.7083  -19.2806 C   0  0  0  0  0  0  0  0  0  0  0  0
   -5.1547   14.7596  -20.0401 C   0  0  0  0  0  0  0  0  0  0  0  0
   -6.3894   15.2649  -19.3302 C   0  0  0  0  0  0  0  0  0  0  0  0
   -6.1480   15.6385  -17.9726 N   0  0  0  0  0  0  0  0  0  0  0  0
   -5.2312   14.8026  -17.2663 C   0  0  0  0  0  0  0  0  0  0  0  0
   -5.0067   13.4617  -17.9099 C   0  0  0  0  0  0  0  0  0  0  0  0
   -5.9185   16.6369  -17.8183 H   0  0  0  0  0  0  0  0  0  0  0  0
 25 26  1  0  0  0
 26 17  1  0  0  0
 17 18  2  0  0  0
 18 19  1  0  0  0
 19 27  1  0  0  0
 27 28  1  0  0  0
 19 20  2  0  0  0
 20 21  1  0  0  0
 20 22  1  0  0  0
 22 23  2  0  0  0
 23 24  1  0  0  0
 22 10  1  0  0  0
 10 11  1  0  0  0
 11 12  2  0  0  0
 12 13  1  0  0  0
 13 14  2  0  0  0
 14 15  1  0  0  0
 15 16  2  0  0  0
 12  1  1  0  0  0
  1  2  2  0  0  0
  2  3  1  0  0  0
  3  4  2  0  0  0
  4  5  1  0  0  0
  5  6  2  0  0  0
  6  7  1  0  0  0
  3 29  1  0  0  0
 29 30  1  0  0  0
 30 31  2  0  0  0
 31 32  1  0  0  0
 32 33  1  0  0  0
 32 34  1  0  0  0
 34 35  1  0  0  0
 35 36  1  0  0  0
 36 37  1  0  0  0
 37 38  1  0  0  0
 38 39  1  0  0  0
 23 17  1  0  0  0
 15 10  1  0  0  0
  6  1  1  0  0  0
 33 29  2  0  0  0
 39 34  1  0  0  0
  7  8  1  0  0  0
  7  9  1  0  0  0
 37 40  1  0  0  0
M  END
> <minimizedAffinity>
-7.13977

> <CNNscore>
0.1521333456

> <CNNaffinity>
6.6789884567

> <CNN_VS>
1.0160968304

> <CNNaffinity_variance>
0.0488125123

$$$$
[H]c1nc(N([H])[H])c(-c2nn(-c3c(Cl)c(OC([H])([H])[H])c([H])c(OC([H])([H])[H])c3Cl)c(=O)c([H])c2[H])nc1-c1c([H])nn(C2([H])C([H])([H])C([H])([H])N([H])C([H])([H])C2([H])[H])c1[H]


 40 44  0  0  0  0  0  0  0  0999 V2000
   -0.3762   21.8515  -23.6768 C   0  0  0  0  0  0  0  0  0  0  0  0
   -1.5932   22.3288  -24.0651 N   0  0  0  0  0  0  0  0  0  0  0  0
   -1.8305   22.7162  -25.3149 C   0  0  0  0  0  0  0  0  0  0  0  0
   -0.8192   22.6307  -26.2312 C   0  0  0  0  0  0  0  0  0  0  0  0
    0.4129   22.1655  -25.9091 N   0  0  0  0  0  0  0  0  0  0  0  0
    0.6056   21.7844  -24.6301 C   0  0  0  0  0  0  0  0  0  0  0  0
    1.8752   21.3002  -24.2734 N   0  0  0  0  0  0  0  0  0  0  0  0
    2.6025   21.9987  -24.0039 H   0  0  0  0  0  0  0  0  0  0  0  0
    2.0557   20.2860  -24.2857 H   0  0  0  0  0  0  0  0  0  0  0  0
    1.3861   21.0844  -20.5688 N   0  0  0  0  0  0  0  0  0  0  0  0
    1.1311   21.4716  -21.8206 N   0  0  0  0  0  0  0  0  0  0  0  0
   -0.1173   21.4286  -22.3166 C   0  0  0  0  0  0  0  0  0  0  0  0
   -1.1301   20.9764  -21.5059 C   0  0  0  0  0  0  0  0  0  0  0  0
   -0.8843   20.5708  -20.2042 C   0  0  0  0  0  0  0  0  0  0  0  0
    0.4185   20.6391  -19.7555 C   0  0  0  0  0  0  0  0  0  0  0  0
    0.6935   20.2834  -18.5846 O   0  0  0  0  0  0  0  0  0  0  0  0
    4.9798   20.2541  -20.1077 C   0  0  0  0  0  0  0  0  0  0  0  0
    5.3704   21.2879  -19.2936 C   0  0  0  0  0  0  0  0  0  0  0  0
    4.4713   22.2683  -18.8862 C   0  0  0  0  0  0  0  0  0  0  0  0
    3.1759   22.1824  -19.3164 C   0  0  0  0  0  0  0  0  0  0  0  0
    2.0402   23.4130  -18.8076 Cl  0  0  0  0  0  0  0  0  0  0  0  0
    2.7449   21.1624  -20.1324 C   0  0  0  0  0  0  0  0  0  0  0  0
    3.6711   20.1990  -20.5208 C   0  0  0  0  0  0  0  0  0  0  0  0
    3.1452   18.8962  -21.5542 Cl  0  0  0  0  0  0  0  0  0  0  0  0
    6.2269   18.1189  -19.8607 C   0  0  0  0  0  0  0  0  0  0  0  0
    5.8858   19.3037  -20.4937 O   0  0  0  0  0  0  0  0  0  0  0  0
    4.8826   23.3025  -18.0660 O   0  0  0  0  0  0  0  0  0  0  0  0
    4.9646   23.0728  -16.6778 C   0  0  0  0  0  0  0  0  0  0  0  0
   -3.1356   23.2160  -25.6985 C   0  0  0  0  0  0  0  0  0  0  0  0
   -4.0228   23.8868  -24.8595 C   0  0  0  0  0  0  0  0  0  0  0  0
   -5.1154   24.1848  -25.5857 N   0  0  0  0  0  0  0  0  0  0  0  0
   -4.9632   23.7378  -26.8356 N   0  0  0  0  0  0  0  0  0  0  0  0
   -3.7694   23.1479  -26.9230 C   0  0  0  0  0  0  0  0  0  0  0  0
   -5.9141   23.8590  -27.9303 C   0  0  0  0  0  0  0  0  0  0  0  0
   -5.4074   23.0562  -29.0824 C   0  0  0  0  0  0  0  0  0  0  0  0
   -5.3469   23.8289  -30.3798 C   0  0  0  0  0  0  0  0  0  0  0  0
   -4.6843   25.0886  -30.2572 N   0  0  0  0  0  0  0  0  0  0  0  0
   -4.9339   25.7903  -29.0393 C   0  0  0  0  0  0  0  0  0  0  0  0
   -6.1489   25.3086  -28.2946 C   0  0  0  0  0  0  0  0  0  0  0  0
   -3.6701   25.0822  -30.4686 H   0  0  0  0  0  0  0  0  0  0  0  0
 25 26  1  0  0  0
 26 17  1  0  0  0
 17 18  2  0  0  0
 18 19  1  0  0  0
 19 27  1  0  0  0
 27 28  1  0  0  0
 19 20  2  0  0  0
 20 21  1  0  0  0
 20 22  1  0  0  0
 22 23  2  0  0  0
 23 24  1  0  0  0
 22 10  1  0  0  0
 10 11  1  0  0  0
 11 12  2  0  0  0
 12 13  1  0  0  0
 13 14  2  0  0  0
 14 15  1  0  0  0
 15 16  2  0  0  0
 12  1  1  0  0  0
  1  2  2  0  0  0
  2  3  1  0  0  0
  3  4  2  0  0  0
  4  5  1  0  0  0
  5  6  2  0  0  0
  6  7  1  0  0  0
  3 29  1  0  0  0
 29 30  1  0  0  0
 30 31  2  0  0  0
 31 32  1  0  0  0
 32 33  1  0  0  0
 32 34  1  0  0  0
 34 35  1  0  0  0
 35 36  1  0  0  0
 36 37  1  0  0  0
 37 38  1  0  0  0
 38 39  1  0  0  0
 23 17  1  0  0  0
 15 10  1  0  0  0
  6  1  1  0  0  0
 33 29  2  0  0  0
 39 34  1  0  0  0
  7  8  1  0  0  0
  7  9  1  0  0  0
 37 40  1  0  0  0
M  END
> <minimizedAffinity>
-8.17253

> <CNNscore>
0.1382333338

> <CNNaffinity>
7.1772551537

> <CNN_VS>
0.9921358824

> <CNNaffinity_variance>
0.2219684571

$$$$
[H]c1nc(N([H])[H])c(-c2nn(-c3c(Cl)c(OC([H])([H])[H])c([H])c(OC([H])([H])[H])c3Cl)c(=O)c([H])c2[H])nc1-c1c([H])nn(C2([H])C([H])([H])C([H])([H])N([H])C([H])([H])C2([H])[H])c1[H]


 40 44  0  0  0  0  0  0  0  0999 V2000
    0.3609   18.6361  -20.5740 C   0  0  0  0  0  0  0  0  0  0  0  0
   -0.4669   17.6588  -20.1057 N   0  0  0  0  0  0  0  0  0  0  0  0
   -0.0417   16.4157  -19.8999 C   0  0  0  0  0  0  0  0  0  0  0  0
    1.2653   16.1168  -20.1688 C   0  0  0  0  0  0  0  0  0  0  0  0
    2.1389   17.0424  -20.6362 N   0  0  0  0  0  0  0  0  0  0  0  0
    1.6617   18.2887  -20.8288 C   0  0  0  0  0  0  0  0  0  0  0  0
    2.5489   19.2639  -21.3139 N   0  0  0  0  0  0  0  0  0  0  0  0
    2.6795   19.3296  -22.3475 H   0  0  0  0  0  0  0  0  0  0  0  0
    3.0409   19.8801  -20.6510 H   0  0  0  0  0  0  0  0  0  0  0  0
   -0.9763   21.6056  -22.2314 N   0  0  0  0  0  0  0  0  0  0  0  0
   -0.5480   20.3610  -22.0093 N   0  0  0  0  0  0  0  0  0  0  0  0
   -0.1009   19.9898  -20.7975 C   0  0  0  0  0  0  0  0  0  0  0  0
   -0.0938   20.9210  -19.7873 C   0  0  0  0  0  0  0  0  0  0  0  0
   -0.5348   22.2172  -19.9993 C   0  0  0  0  0  0  0  0  0  0  0  0
   -0.9810   22.5347  -21.2656 C   0  0  0  0  0  0  0  0  0  0  0  0
   -1.3906   23.6948  -21.5089 O   0  0  0  0  0  0  0  0  0  0  0  0
   -0.9409   22.5643  -25.8226 C   0  0  0  0  0  0  0  0  0  0  0  0
   -2.2820   22.5028  -26.1086 C   0  0  0  0  0  0  0  0  0  0  0  0
   -3.2139   22.1472  -25.1385 C   0  0  0  0  0  0  0  0  0  0  0  0
   -2.7642   21.8568  -23.8800 C   0  0  0  0  0  0  0  0  0  0  0  0
   -3.9316   21.4085  -22.6554 Cl  0  0  0  0  0  0  0  0  0  0  0  0
   -1.4291   21.9070  -23.5532 C   0  0  0  0  0  0  0  0  0  0  0  0
   -0.5246   22.2662  -24.5481 C   0  0  0  0  0  0  0  0  0  0  0  0
    1.1729   22.3374  -24.1546 Cl  0  0  0  0  0  0  0  0  0  0  0  0
    0.1581   22.3389  -28.0399 C   0  0  0  0  0  0  0  0  0  0  0  0
   -0.0463   22.9163  -26.7966 O   0  0  0  0  0  0  0  0  0  0  0  0
   -4.5609   22.0904  -25.4448 O   0  0  0  0  0  0  0  0  0  0  0  0
   -5.3084   23.2853  -25.4309 C   0  0  0  0  0  0  0  0  0  0  0  0
   -0.9446   15.3994  -19.3980 C   0  0  0  0  0  0  0  0  0  0  0  0
   -0.5937   14.3582  -18.5414 C   0  0  0  0  0  0  0  0  0  0  0  0
   -1.7052   13.6366  -18.3096 N   0  0  0  0  0  0  0  0  0  0  0  0
   -2.7356   14.1674  -18.9740 N   0  0  0  0  0  0  0  0  0  0  0  0
   -2.2940   15.2366  -19.6393 C   0  0  0  0  0  0  0  0  0  0  0  0
   -4.1090   13.6868  -18.9880 C   0  0  0  0  0  0  0  0  0  0  0  0
   -4.8946   14.5401  -19.9279 C   0  0  0  0  0  0  0  0  0  0  0  0
   -6.1588   15.1044  -19.3218 C   0  0  0  0  0  0  0  0  0  0  0  0
   -5.9471   15.7348  -18.0575 N   0  0  0  0  0  0  0  0  0  0  0  0
   -4.9947   15.0921  -17.2101 C   0  0  0  0  0  0  0  0  0  0  0  0
   -4.6977   13.6684  -17.5944 C   0  0  0  0  0  0  0  0  0  0  0  0
   -5.7695   16.7549  -18.0913 H   0  0  0  0  0  0  0  0  0  0  0  0
 25 26  1  0  0  0
 26 17  1  0  0  0
 17 18  2  0  0  0
 18 19  1  0  0  0
 19 27  1  0  0  0
 27 28  1  0  0  0
 19 20  2  0  0  0
 20 21  1  0  0  0
 20 22  1  0  0  0
 22 23  2  0  0  0
 23 24  1  0  0  0
 22 10  1  0  0  0
 10 11  1  0  0  0
 11 12  2  0  0  0
 12 13  1  0  0  0
 13 14  2  0  0  0
 14 15  1  0  0  0
 15 16  2  0  0  0
 12  1  1  0  0  0
  1  2  2  0  0  0
  2  3  1  0  0  0
  3  4  2  0  0  0
  4  5  1  0  0  0
  5  6  2  0  0  0
  6  7  1  0  0  0
  3 29  1  0  0  0
 29 30  1  0  0  0
 30 31  2  0  0  0
 31 32  1  0  0  0
 32 33  1  0  0  0
 32 34  1  0  0  0
 34 35  1  0  0  0
 35 36  1  0  0  0
 36 37  1  0  0  0
 37 38  1  0  0  0
 38 39  1  0  0  0
 23 17  1  0  0  0
 15 10  1  0  0  0
  6  1  1  0  0  0
 33 29  2  0  0  0
 39 34  1  0  0  0
  7  8  1  0  0  0
  7  9  1  0  0  0
 37 40  1  0  0  0
M  END
> <minimizedAffinity>
-6.82566

> <CNNscore>
0.1370847374

> <CNNaffinity>
6.5213713646

> <CNN_VS>
0.8939805031

> <CNNaffinity_variance>
0.0689868480

$$$$
[H]c1nc(N([H])[H])c(-c2nn(-c3c(Cl)c(OC([H])([H])[H])c([H])c(OC([H])([H])[H])c3Cl)c(=O)c([H])c2[H])nc1-c1c([H])nn(C2([H])C([H])([H])C([H])([H])N([H])C([H])([H])C2([H])[H])c1[H]


 40 44  0  0  0  0  0  0  0  0999 V2000
   -0.4798   22.1086  -23.7900 C   0  0  0  0  0  0  0  0  0  0  0  0
   -1.6711   22.6053  -24.2303 N   0  0  0  0  0  0  0  0  0  0  0  0
   -1.8953   22.8589  -25.5163 C   0  0  0  0  0  0  0  0  0  0  0  0
   -0.8967   22.6118  -26.4171 C   0  0  0  0  0  0  0  0  0  0  0  0
    0.3099   22.1186  -26.0441 N   0  0  0  0  0  0  0  0  0  0  0  0
    0.4901   21.8772  -24.7298 C   0  0  0  0  0  0  0  0  0  0  0  0
    1.7333   21.3670  -24.3202 N   0  0  0  0  0  0  0  0  0  0  0  0
    2.5002   22.0501  -24.1336 H   0  0  0  0  0  0  0  0  0  0  0  0
    1.8571   20.3497  -24.2154 H   0  0  0  0  0  0  0  0  0  0  0  0
    0.8773   20.6101  -20.7460 N   0  0  0  0  0  0  0  0  0  0  0  0
    0.6416   20.8780  -22.0323 N   0  0  0  0  0  0  0  0  0  0  0  0
   -0.2352   21.8315  -22.3903 C   0  0  0  0  0  0  0  0  0  0  0  0
   -0.8867   22.5283  -21.4015 C   0  0  0  0  0  0  0  0  0  0  0  0
   -0.6545   22.2642  -20.0614 C   0  0  0  0  0  0  0  0  0  0  0  0
    0.2570   21.2733  -19.7605 C   0  0  0  0  0  0  0  0  0  0  0  0
    0.5025   20.9960  -18.5622 O   0  0  0  0  0  0  0  0  0  0  0  0
    2.2929   17.2652  -19.9554 C   0  0  0  0  0  0  0  0  0  0  0  0
    3.6310   17.5675  -19.9079 C   0  0  0  0  0  0  0  0  0  0  0  0
    4.0897   18.8614  -20.1341 C   0  0  0  0  0  0  0  0  0  0  0  0
    3.1724   19.8383  -20.4077 C   0  0  0  0  0  0  0  0  0  0  0  0
    3.7433   21.4679  -20.6934 Cl  0  0  0  0  0  0  0  0  0  0  0  0
    1.8233   19.5764  -20.4640 C   0  0  0  0  0  0  0  0  0  0  0  0
    1.3996   18.2710  -20.2330 C   0  0  0  0  0  0  0  0  0  0  0  0
   -0.3069   17.9175  -20.2982 Cl  0  0  0  0  0  0  0  0  0  0  0  0
    1.5502   15.3718  -18.5278 C   0  0  0  0  0  0  0  0  0  0  0  0
    1.8698   15.9835  -19.7297 O   0  0  0  0  0  0  0  0  0  0  0  0
    5.4414   19.1474  -20.0823 O   0  0  0  0  0  0  0  0  0  0  0  0
    6.2333   18.8783  -21.2168 C   0  0  0  0  0  0  0  0  0  0  0  0
   -3.1732   23.3834  -25.9543 C   0  0  0  0  0  0  0  0  0  0  0  0
   -4.0004   24.2221  -25.2105 C   0  0  0  0  0  0  0  0  0  0  0  0
   -5.0855   24.4851  -25.9611 N   0  0  0  0  0  0  0  0  0  0  0  0
   -4.9853   23.8574  -27.1362 N   0  0  0  0  0  0  0  0  0  0  0  0
   -3.8329   23.1846  -27.1505 C   0  0  0  0  0  0  0  0  0  0  0  0
   -5.9472   23.8846  -28.2278 C   0  0  0  0  0  0  0  0  0  0  0  0
   -5.3919   23.0878  -29.3617 C   0  0  0  0  0  0  0  0  0  0  0  0
   -5.3900   23.8282  -30.6791 C   0  0  0  0  0  0  0  0  0  0  0  0
   -4.8143   25.1329  -30.5936 N   0  0  0  0  0  0  0  0  0  0  0  0
   -5.1058   25.8480  -29.3929 C   0  0  0  0  0  0  0  0  0  0  0  0
   -6.2818   25.3046  -28.6284 C   0  0  0  0  0  0  0  0  0  0  0  0
   -3.8030   25.1899  -30.8111 H   0  0  0  0  0  0  0  0  0  0  0  0
 25 26  1  0  0  0
 26 17  1  0  0  0
 17 18  2  0  0  0
 18 19  1  0  0  0
 19 27  1  0  0  0
 27 28  1  0  0  0
 19 20  2  0  0  0
 20 21  1  0  0  0
 20 22  1  0  0  0
 22 23  2  0  0  0
 23 24  1  0  0  0
 22 10  1  0  0  0
 10 11  1  0  0  0
 11 12  2  0  0  0
 12 13  1  0  0  0
 13 14  2  0  0  0
 14 15  1  0  0  0
 15 16  2  0  0  0
 12  1  1  0  0  0
  1  2  2  0  0  0
  2  3  1  0  0  0
  3  4  2  0  0  0
  4  5  1  0  0  0
  5  6  2  0  0  0
  6  7  1  0  0  0
  3 29  1  0  0  0
 29 30  1  0  0  0
 30 31  2  0  0  0
 31 32  1  0  0  0
 32 33  1  0  0  0
 32 34  1  0  0  0
 34 35  1  0  0  0
 35 36  1  0  0  0
 36 37  1  0  0  0
 37 38  1  0  0  0
 38 39  1  0  0  0
 23 17  1  0  0  0
 15 10  1  0  0  0
  6  1  1  0  0  0
 33 29  2  0  0  0
 39 34  1  0  0  0
  7  8  1  0  0  0
  7  9  1  0  0  0
 37 40  1  0  0  0
M  END
> <minimizedAffinity>
-7.84801

> <CNNscore>
0.1346493810

> <CNNaffinity>
7.2376403809

> <CNN_VS>
0.9745438099

> <CNNaffinity_variance>
0.3571820557

$$$$
[H]c1nc(N([H])[H])c(-c2nn(-c3c(Cl)c(OC([H])([H])[H])c([H])c(OC([H])([H])[H])c3Cl)c(=O)c([H])c2[H])nc1-c1c([H])nn(C([H])([H])[H])c1[H]


 34 37  0  0  0  0  0  0  0  0999 V2000
   -5.6622   23.5692  -25.3339 N   0  0  0  0  0  0  0  0  0  0  0  0
   -4.3613   23.2717  -25.3708 N   0  0  0  0  0  0  0  0  0  0  0  0
   -3.6512   23.1594  -26.4841 C   0  0  0  0  0  0  0  0  0  0  0  0
   -4.3041   23.3647  -27.6875 C   0  0  0  0  0  0  0  0  0  0  0  0
   -5.6599   23.6780  -27.7218 C   0  0  0  0  0  0  0  0  0  0  0  0
   -6.3008   23.7697  -26.5043 C   0  0  0  0  0  0  0  0  0  0  0  0
   -7.5262   24.0495  -26.4623 O   0  0  0  0  0  0  0  0  0  0  0  0
   -2.2313   22.8325  -26.4735 C   0  0  0  0  0  0  0  0  0  0  0  0
   -1.5963   22.4353  -25.3616 N   0  0  0  0  0  0  0  0  0  0  0  0
   -0.2760   22.1367  -25.3752 C   0  0  0  0  0  0  0  0  0  0  0  0
    0.4650   22.2299  -26.5338 C   0  0  0  0  0  0  0  0  0  0  0  0
   -0.1705   22.6279  -27.6489 N   0  0  0  0  0  0  0  0  0  0  0  0
   -1.4993   22.9292  -27.6380 C   0  0  0  0  0  0  0  0  0  0  0  0
   -2.1780   23.3487  -28.8050 N   0  0  0  0  0  0  0  0  0  0  0  0
   -2.2465   24.3602  -29.0062 H   0  0  0  0  0  0  0  0  0  0  0  0
   -2.5915   22.6648  -29.4355 H   0  0  0  0  0  0  0  0  0  0  0  0
    0.3658   21.7097  -24.1383 C   0  0  0  0  0  0  0  0  0  0  0  0
   -0.2392   21.4835  -22.9195 C   0  0  0  0  0  0  0  0  0  0  0  0
    0.7254   21.1024  -22.0489 N   0  0  0  0  0  0  0  0  0  0  0  0
    1.9056   21.0750  -22.6492 N   0  0  0  0  0  0  0  0  0  0  0  0
    3.2004   20.7180  -22.0669 C   0  0  0  0  0  0  0  0  0  0  0  0
    1.7028   21.4455  -23.9336 C   0  0  0  0  0  0  0  0  0  0  0  0
   -7.4785   22.6955  -22.1869 C   0  0  0  0  0  0  0  0  0  0  0  0
   -7.7769   23.9609  -21.6647 C   0  0  0  0  0  0  0  0  0  0  0  0
   -7.3559   25.0730  -22.3912 C   0  0  0  0  0  0  0  0  0  0  0  0
   -6.6725   24.9249  -23.5769 C   0  0  0  0  0  0  0  0  0  0  0  0
   -6.1354   26.3274  -24.5035 Cl  0  0  0  0  0  0  0  0  0  0  0  0
   -6.3712   23.6759  -24.1039 C   0  0  0  0  0  0  0  0  0  0  0  0
   -6.7930   22.5856  -23.3762 C   0  0  0  0  0  0  0  0  0  0  0  0
   -6.4407   20.9902  -23.9931 Cl  0  0  0  0  0  0  0  0  0  0  0  0
   -8.5541   21.5273  -20.3109 C   0  0  0  0  0  0  0  0  0  0  0  0
   -7.8640   21.5475  -21.5224 O   0  0  0  0  0  0  0  0  0  0  0  0
   -7.6250   26.3705  -21.9198 O   0  0  0  0  0  0  0  0  0  0  0  0
   -8.4382   26.5875  -20.7863 C   0  0  0  0  0  0  0  0  0  0  0  0
 31 32  1  0  0  0
 32 23  1  0  0  0
 23 24  2  0  0  0
 24 25  1  0  0  0
 25 33  1  0  0  0
 33 34  1  0  0  0
 25 26  2  0  0  0
 26 27  1  0  0  0
 26 28  1  0  0  0
 28 29  2  0  0  0
 29 30  1  0  0  0
 28  1  1  0  0  0
  1  2  1  0  0  0
  2  3  2  0  0  0
  3  4  1  0  0  0
  4  5  2  0  0  0
  5  6  1  0  0  0
  6  7  2  0  0  0
  3  8  1  0  0  0
  8  9  2  0  0  0
  9 10  1  0  0  0
 10 11  2  0  0  0
 11 12  1  0  0  0
 12 13  2  0  0  0
 13 14  1  0  0  0
 10 17  1  0  0  0
 17 18  1  0  0  0
 18 19  2  0  0  0
 19 20  1  0  0  0
 20 21  1  0  0  0
 20 22  1  0  0  0
 29 23  1  0  0  0
  6  1  1  0  0  0
 13  8  1  0  0  0
 22 17  2  0  0  0
 14 15  1  0  0  0
 14 16  1  0  0  0
M  END
> <minimizedAffinity>
-9.36002

> <CNNscore>
0.8253295422

> <CNNaffinity>
7.8041839600

> <CNN_VS>
6.4410233498

> <CNNaffinity_variance>
0.1747713387

$$$$
[H]c1nc(N([H])[H])c(-c2nn(-c3c(Cl)c(OC([H])([H])[H])c([H])c(OC([H])([H])[H])c3Cl)c(=O)c([H])c2[H])nc1-c1c([H])nn(C([H])([H])[H])c1[H]


 34 37  0  0  0  0  0  0  0  0999 V2000
   -5.6990   23.6415  -25.3285 N   0  0  0  0  0  0  0  0  0  0  0  0
   -4.3997   23.3375  -25.3703 N   0  0  0  0  0  0  0  0  0  0  0  0
   -3.7012   23.1932  -26.4872 C   0  0  0  0  0  0  0  0  0  0  0  0
   -4.3650   23.3701  -27.6891 C   0  0  0  0  0  0  0  0  0  0  0  0
   -5.7198   23.6883  -27.7182 C   0  0  0  0  0  0  0  0  0  0  0  0
   -6.3483   23.8143  -26.4973 C   0  0  0  0  0  0  0  0  0  0  0  0
   -7.5720   24.1005  -26.4507 O   0  0  0  0  0  0  0  0  0  0  0  0
   -2.2826   22.8605  -26.4820 C   0  0  0  0  0  0  0  0  0  0  0  0
   -1.6453   22.4594  -25.3728 N   0  0  0  0  0  0  0  0  0  0  0  0
   -0.3263   22.1554  -25.3914 C   0  0  0  0  0  0  0  0  0  0  0  0
    0.4111   22.2470  -26.5525 C   0  0  0  0  0  0  0  0  0  0  0  0
   -0.2267   22.6489  -27.6649 N   0  0  0  0  0  0  0  0  0  0  0  0
   -1.5543   22.9556  -27.6489 C   0  0  0  0  0  0  0  0  0  0  0  0
   -2.2353   23.3793  -28.8130 N   0  0  0  0  0  0  0  0  0  0  0  0
   -2.3004   24.3913  -29.0128 H   0  0  0  0  0  0  0  0  0  0  0  0
   -2.6539   22.6978  -29.4428 H   0  0  0  0  0  0  0  0  0  0  0  0
    0.3182   21.7243  -24.1572 C   0  0  0  0  0  0  0  0  0  0  0  0
   -0.2852   21.4876  -22.9397 C   0  0  0  0  0  0  0  0  0  0  0  0
    0.6815   21.1062  -22.0717 N   0  0  0  0  0  0  0  0  0  0  0  0
    1.8617   21.0887  -22.6724 N   0  0  0  0  0  0  0  0  0  0  0  0
    3.1585   20.7351  -22.0926 C   0  0  0  0  0  0  0  0  0  0  0  0
    1.6566   21.4660  -23.9545 C   0  0  0  0  0  0  0  0  0  0  0  0
   -7.4062   25.1328  -22.3574 C   0  0  0  0  0  0  0  0  0  0  0  0
   -7.7811   23.9916  -21.6365 C   0  0  0  0  0  0  0  0  0  0  0  0
   -7.4460   22.7508  -22.1751 C   0  0  0  0  0  0  0  0  0  0  0  0
   -6.7718   22.6589  -23.3717 C   0  0  0  0  0  0  0  0  0  0  0  0
   -6.3435   21.0920  -24.0613 Cl  0  0  0  0  0  0  0  0  0  0  0  0
   -6.3953   23.7831  -24.0947 C   0  0  0  0  0  0  0  0  0  0  0  0
   -6.7324   25.0027  -23.5514 C   0  0  0  0  0  0  0  0  0  0  0  0
   -6.2830   26.4500  -24.4192 Cl  0  0  0  0  0  0  0  0  0  0  0  0
   -8.5098   26.6593  -20.7784 C   0  0  0  0  0  0  0  0  0  0  0  0
   -7.7042   26.3966  -21.8857 O   0  0  0  0  0  0  0  0  0  0  0  0
   -7.7945   21.5677  -21.4992 O   0  0  0  0  0  0  0  0  0  0  0  0
   -8.6647   21.5844  -20.3876 C   0  0  0  0  0  0  0  0  0  0  0  0
 31 32  1  0  0  0
 32 23  1  0  0  0
 23 24  2  0  0  0
 24 25  1  0  0  0
 25 33  1  0  0  0
 33 34  1  0  0  0
 25 26  2  0  0  0
 26 27  1  0  0  0
 26 28  1  0  0  0
 28 29  2  0  0  0
 29 30  1  0  0  0
 28  1  1  0  0  0
  1  2  1  0  0  0
  2  3  2  0  0  0
  3  4  1  0  0  0
  4  5  2  0  0  0
  5  6  1  0  0  0
  6  7  2  0  0  0
  3  8  1  0  0  0
  8  9  2  0  0  0
  9 10  1  0  0  0
 10 11  2  0  0  0
 11 12  1  0  0  0
 12 13  2  0  0  0
 13 14  1  0  0  0
 10 17  1  0  0  0
 17 18  1  0  0  0
 18 19  2  0  0  0
 19 20  1  0  0  0
 20 21  1  0  0  0
 20 22  1  0  0  0
 29 23  1  0  0  0
  6  1  1  0  0  0
 13  8  1  0  0  0
 22 17  2  0  0  0
 14 15  1  0  0  0
 14 16  1  0  0  0
M  END
> <minimizedAffinity>
-9.48185

> <CNNscore>
0.8042446971

> <CNNaffinity>
7.7759275436

> <CNN_VS>
6.2537484169

> <CNNaffinity_variance>
0.1764299572

$$$$
[H]c1nc(N([H])[H])c(-c2nn(-c3c(Cl)c(OC([H])([H])[H])c([H])c(OC([H])([H])[H])c3Cl)c(=O)c([H])c2[H])nc1-c1c([H])nn(C([H])([H])[H])c1[H]


 34 37  0  0  0  0  0  0  0  0999 V2000
    0.8613   20.4142  -20.8909 N   0  0  0  0  0  0  0  0  0  0  0  0
    0.6418   20.7091  -22.1743 N   0  0  0  0  0  0  0  0  0  0  0  0
   -0.2458   21.5984  -22.5959 C   0  0  0  0  0  0  0  0  0  0  0  0
   -0.9936   22.2645  -21.6400 C   0  0  0  0  0  0  0  0  0  0  0  0
   -0.8159   22.0054  -20.2840 C   0  0  0  0  0  0  0  0  0  0  0  0
    0.1345   21.0611  -19.9577 C   0  0  0  0  0  0  0  0  0  0  0  0
    0.3463   20.7784  -18.7507 O   0  0  0  0  0  0  0  0  0  0  0  0
   -0.4495   21.8866  -24.0095 C   0  0  0  0  0  0  0  0  0  0  0  0
   -1.6554   22.1874  -24.5124 N   0  0  0  0  0  0  0  0  0  0  0  0
   -1.8212   22.4517  -25.8297 C   0  0  0  0  0  0  0  0  0  0  0  0
   -0.7555   22.4214  -26.7035 C   0  0  0  0  0  0  0  0  0  0  0  0
    0.4536   22.1201  -26.2005 N   0  0  0  0  0  0  0  0  0  0  0  0
    0.6233   21.8536  -24.8751 C   0  0  0  0  0  0  0  0  0  0  0  0
    1.8906   21.5356  -24.3351 N   0  0  0  0  0  0  0  0  0  0  0  0
    2.1722   20.5430  -24.2738 H   0  0  0  0  0  0  0  0  0  0  0  0
    2.5139   22.2730  -24.0127 H   0  0  0  0  0  0  0  0  0  0  0  0
   -3.1538   22.7731  -26.3248 C   0  0  0  0  0  0  0  0  0  0  0  0
   -4.2940   22.9807  -25.5768 C   0  0  0  0  0  0  0  0  0  0  0  0
   -5.3036   23.2522  -26.4373 N   0  0  0  0  0  0  0  0  0  0  0  0
   -4.8653   23.2278  -27.6868 N   0  0  0  0  0  0  0  0  0  0  0  0
   -5.6313   23.4665  -28.9112 C   0  0  0  0  0  0  0  0  0  0  0  0
   -3.5463   22.9349  -27.6359 C   0  0  0  0  0  0  0  0  0  0  0  0
    2.4740   17.1903  -19.9049 C   0  0  0  0  0  0  0  0  0  0  0  0
    3.8082   17.5779  -19.7247 C   0  0  0  0  0  0  0  0  0  0  0  0
    4.1245   18.9176  -19.9414 C   0  0  0  0  0  0  0  0  0  0  0  0
    3.1559   19.8201  -20.3185 C   0  0  0  0  0  0  0  0  0  0  0  0
    3.5473   21.5184  -20.5952 Cl  0  0  0  0  0  0  0  0  0  0  0  0
    1.8306   19.4472  -20.5002 C   0  0  0  0  0  0  0  0  0  0  0  0
    1.5316   18.1207  -20.2828 C   0  0  0  0  0  0  0  0  0  0  0  0
   -0.1206   17.5971  -20.4970 Cl  0  0  0  0  0  0  0  0  0  0  0  0
    1.7598   15.3268  -18.4702 C   0  0  0  0  0  0  0  0  0  0  0  0
    2.0858   15.8793  -19.7082 O   0  0  0  0  0  0  0  0  0  0  0  0
    5.4463   19.3691  -19.7767 O   0  0  0  0  0  0  0  0  0  0  0  0
    5.9861   19.6131  -18.4952 C   0  0  0  0  0  0  0  0  0  0  0  0
 31 32  1  0  0  0
 32 23  1  0  0  0
 23 24  2  0  0  0
 24 25  1  0  0  0
 25 33  1  0  0  0
 33 34  1  0  0  0
 25 26  2  0  0  0
 26 27  1  0  0  0
 26 28  1  0  0  0
 28 29  2  0  0  0
 29 30  1  0  0  0
 28  1  1  0  0  0
  1  2  1  0  0  0
  2  3  2  0  0  0
  3  4  1  0  0  0
  4  5  2  0  0  0
  5  6  1  0  0  0
  6  7  2  0  0  0
  3  8  1  0  0  0
  8  9  2  0  0  0
  9 10  1  0  0  0
 10 11  2  0  0  0
 11 12  1  0  0  0
 12 13  2  0  0  0
 13 14  1  0  0  0
 10 17  1  0  0  0
 17 18  1  0  0  0
 18 19  2  0  0  0
 19 20  1  0  0  0
 20 21  1  0  0  0
 20 22  1  0  0  0
 29 23  1  0  0  0
  6  1  1  0  0  0
 13  8  1  0  0  0
 22 17  2  0  0  0
 14 15  1  0  0  0
 14 16  1  0  0  0
M  END
> <minimizedAffinity>
-6.87119

> <CNNscore>
0.3667990267

> <CNNaffinity>
6.8355522156

> <CNN_VS>
2.5072739124

> <CNNaffinity_variance>
0.2237941325

$$$$
[H]c1nc(N([H])[H])c(-c2nn(-c3c(Cl)c(OC([H])([H])[H])c([H])c(OC([H])([H])[H])c3Cl)c(=O)c([H])c2[H])nc1-c1c([H])nn(C([H])([H])[H])c1[H]


 34 37  0  0  0  0  0  0  0  0999 V2000
    0.9236   20.5650  -20.7645 N   0  0  0  0  0  0  0  0  0  0  0  0
    0.7027   20.8223  -22.0557 N   0  0  0  0  0  0  0  0  0  0  0  0
   -0.2215   21.6599  -22.5037 C   0  0  0  0  0  0  0  0  0  0  0  0
   -1.0088   22.3099  -21.5687 C   0  0  0  0  0  0  0  0  0  0  0  0
   -0.8320   22.0880  -20.2060 C   0  0  0  0  0  0  0  0  0  0  0  0
    0.1584   21.1965  -19.8515 C   0  0  0  0  0  0  0  0  0  0  0  0
    0.3718   20.9494  -18.6370 O   0  0  0  0  0  0  0  0  0  0  0  0
   -0.4251   21.9084  -23.9249 C   0  0  0  0  0  0  0  0  0  0  0  0
   -1.6309   22.1953  -24.4361 N   0  0  0  0  0  0  0  0  0  0  0  0
   -1.7966   22.4226  -25.7602 C   0  0  0  0  0  0  0  0  0  0  0  0
   -0.7308   22.3677  -26.6328 C   0  0  0  0  0  0  0  0  0  0  0  0
    0.4782   22.0803  -26.1215 N   0  0  0  0  0  0  0  0  0  0  0  0
    0.6478   21.8509  -24.7891 C   0  0  0  0  0  0  0  0  0  0  0  0
    1.9149   21.5478  -24.2404 N   0  0  0  0  0  0  0  0  0  0  0  0
    2.1963   20.5573  -24.1513 H   0  0  0  0  0  0  0  0  0  0  0  0
    2.5383   22.2939  -23.9387 H   0  0  0  0  0  0  0  0  0  0  0  0
   -3.1291   22.7304  -26.2642 C   0  0  0  0  0  0  0  0  0  0  0  0
   -4.2911   22.8504  -25.5309 C   0  0  0  0  0  0  0  0  0  0  0  0
   -5.2915   23.1430  -26.3952 N   0  0  0  0  0  0  0  0  0  0  0  0
   -4.8268   23.2146  -27.6333 N   0  0  0  0  0  0  0  0  0  0  0  0
   -5.5751   23.5063  -28.8572 C   0  0  0  0  0  0  0  0  0  0  0  0
   -3.4996   22.9636  -27.5710 C   0  0  0  0  0  0  0  0  0  0  0  0
    4.1939   19.1487  -19.6398 C   0  0  0  0  0  0  0  0  0  0  0  0
    3.8916   17.7863  -19.5162 C   0  0  0  0  0  0  0  0  0  0  0  0
    2.5913   17.3854  -19.8166 C   0  0  0  0  0  0  0  0  0  0  0  0
    1.6450   18.3006  -20.2190 C   0  0  0  0  0  0  0  0  0  0  0  0
   -0.0040   17.8020  -20.6013 Cl  0  0  0  0  0  0  0  0  0  0  0  0
    1.9334   19.6532  -20.3449 C   0  0  0  0  0  0  0  0  0  0  0  0
    3.2217   20.0358  -20.0451 C   0  0  0  0  0  0  0  0  0  0  0  0
    3.6392   21.7257  -20.1867 Cl  0  0  0  0  0  0  0  0  0  0  0  0
    5.9740   19.7994  -18.0748 C   0  0  0  0  0  0  0  0  0  0  0  0
    5.4618   19.6199  -19.3592 O   0  0  0  0  0  0  0  0  0  0  0  0
    2.2254   16.0314  -19.7120 O   0  0  0  0  0  0  0  0  0  0  0  0
    1.8763   15.4574  -18.4702 C   0  0  0  0  0  0  0  0  0  0  0  0
 31 32  1  0  0  0
 32 23  1  0  0  0
 23 24  2  0  0  0
 24 25  1  0  0  0
 25 33  1  0  0  0
 33 34  1  0  0  0
 25 26  2  0  0  0
 26 27  1  0  0  0
 26 28  1  0  0  0
 28 29  2  0  0  0
 29 30  1  0  0  0
 28  1  1  0  0  0
  1  2  1  0  0  0
  2  3  2  0  0  0
  3  4  1  0  0  0
  4  5  2  0  0  0
  5  6  1  0  0  0
  6  7  2  0  0  0
  3  8  1  0  0  0
  8  9  2  0  0  0
  9 10  1  0  0  0
 10 11  2  0  0  0
 11 12  1  0  0  0
 12 13  2  0  0  0
 13 14  1  0  0  0
 10 17  1  0  0  0
 17 18  1  0  0  0
 18 19  2  0  0  0
 19 20  1  0  0  0
 20 21  1  0  0  0
 20 22  1  0  0  0
 29 23  1  0  0  0
  6  1  1  0  0  0
 13  8  1  0  0  0
 22 17  2  0  0  0
 14 15  1  0  0  0
 14 16  1  0  0  0
M  END
> <minimizedAffinity>
-6.88272

> <CNNscore>
0.3114022911

> <CNNaffinity>
6.7706780434

> <CNN_VS>
2.1084046364

> <CNNaffinity_variance>
0.1727978885

$$$$
[H]c1nc(N([H])[H])c(-c2nn(-c3c(Cl)c(OC([H])([H])[H])c([H])c(OC([H])([H])[H])c3Cl)c(=O)c([H])c2[H])nc1-c1c([H])nn(C([H])([H])[H])c1[H]


 34 37  0  0  0  0  0  0  0  0999 V2000
   -1.1069   21.5236  -20.8263 N   0  0  0  0  0  0  0  0  0  0  0  0
   -1.0040   21.7733  -22.1337 N   0  0  0  0  0  0  0  0  0  0  0  0
   -2.0371   21.9474  -22.9453 C   0  0  0  0  0  0  0  0  0  0  0  0
   -3.3063   21.8645  -22.3986 C   0  0  0  0  0  0  0  0  0  0  0  0
   -3.4860   21.6067  -21.0426 C   0  0  0  0  0  0  0  0  0  0  0  0
   -2.3417   21.4422  -20.2910 C   0  0  0  0  0  0  0  0  0  0  0  0
   -2.4314   21.2067  -19.0589 O   0  0  0  0  0  0  0  0  0  0  0  0
   -1.8741   22.2184  -24.3676 C   0  0  0  0  0  0  0  0  0  0  0  0
   -2.9065   22.5482  -25.1566 N   0  0  0  0  0  0  0  0  0  0  0  0
   -2.7315   22.7957  -26.4760 C   0  0  0  0  0  0  0  0  0  0  0  0
   -1.4841   22.7177  -27.0576 C   0  0  0  0  0  0  0  0  0  0  0  0
   -0.4485   22.3871  -26.2676 N   0  0  0  0  0  0  0  0  0  0  0  0
   -0.6219   22.1375  -24.9393 C   0  0  0  0  0  0  0  0  0  0  0  0
    0.4602   21.7891  -24.0991 N   0  0  0  0  0  0  0  0  0  0  0  0
    0.6837   20.7893  -23.9615 H   0  0  0  0  0  0  0  0  0  0  0  0
    1.0091   22.5119  -23.6381 H   0  0  0  0  0  0  0  0  0  0  0  0
   -3.8879   23.1503  -27.2891 C   0  0  0  0  0  0  0  0  0  0  0  0
   -5.1583   23.4531  -26.8454 C   0  0  0  0  0  0  0  0  0  0  0  0
   -5.9180   23.7220  -27.9336 N   0  0  0  0  0  0  0  0  0  0  0  0
   -5.1989   23.6062  -29.0397 N   0  0  0  0  0  0  0  0  0  0  0  0
   -5.6382   23.8104  -30.4211 C   0  0  0  0  0  0  0  0  0  0  0  0
   -3.9490   23.2554  -28.6619 C   0  0  0  0  0  0  0  0  0  0  0  0
    1.6443   22.1427  -18.3741 C   0  0  0  0  0  0  0  0  0  0  0  0
    2.3342   20.9235  -18.3999 C   0  0  0  0  0  0  0  0  0  0  0  0
    1.8498   19.9274  -19.2454 C   0  0  0  0  0  0  0  0  0  0  0  0
    0.7342   20.1414  -20.0229 C   0  0  0  0  0  0  0  0  0  0  0  0
    0.1137   18.8858  -21.0964 Cl  0  0  0  0  0  0  0  0  0  0  0  0
    0.0426   21.3455  -20.0053 C   0  0  0  0  0  0  0  0  0  0  0  0
    0.5317   22.3212  -19.1657 C   0  0  0  0  0  0  0  0  0  0  0  0
   -0.2999   23.8557  -19.1043 Cl  0  0  0  0  0  0  0  0  0  0  0  0
    3.2392   23.9056  -17.7497 C   0  0  0  0  0  0  0  0  0  0  0  0
    2.0658   23.1764  -17.5605 O   0  0  0  0  0  0  0  0  0  0  0  0
    2.4983   18.6814  -19.3165 O   0  0  0  0  0  0  0  0  0  0  0  0
    3.9066   18.5829  -19.3008 C   0  0  0  0  0  0  0  0  0  0  0  0
 31 32  1  0  0  0
 32 23  1  0  0  0
 23 24  2  0  0  0
 24 25  1  0  0  0
 25 33  1  0  0  0
 33 34  1  0  0  0
 25 26  2  0  0  0
 26 27  1  0  0  0
 26 28  1  0  0  0
 28 29  2  0  0  0
 29 30  1  0  0  0
 28  1  1  0  0  0
  1  2  1  0  0  0
  2  3  2  0  0  0
  3  4  1  0  0  0
  4  5  2  0  0  0
  5  6  1  0  0  0
  6  7  2  0  0  0
  3  8  1  0  0  0
  8  9  2  0  0  0
  9 10  1  0  0  0
 10 11  2  0  0  0
 11 12  1  0  0  0
 12 13  2  0  0  0
 13 14  1  0  0  0
 10 17  1  0  0  0
 17 18  1  0  0  0
 18 19  2  0  0  0
 19 20  1  0  0  0
 20 21  1  0  0  0
 20 22  1  0  0  0
 29 23  1  0  0  0
  6  1  1  0  0  0
 13  8  1  0  0  0
 22 17  2  0  0  0
 14 15  1  0  0  0
 14 16  1  0  0  0
M  END
> <minimizedAffinity>
-7.20500

> <CNNscore>
0.2339956760

> <CNNaffinity>
7.0489568710

> <CNN_VS>
1.6494253874

> <CNNaffinity_variance>
0.4041718841

$$$$
[H]c1nc(N([H])[H])c(-c2nn(-c3c(Cl)c(OC([H])([H])[H])c([H])c(OC([H])([H])[H])c3Cl)c(=O)c([H])c2[H])nc1-c1c([H])nn(C([H])([H])[H])c1[H]


 34 37  0  0  0  0  0  0  0  0999 V2000
   -1.0641   21.4676  -20.7688 N   0  0  0  0  0  0  0  0  0  0  0  0
   -0.9737   21.7279  -22.0751 N   0  0  0  0  0  0  0  0  0  0  0  0
   -2.0135   21.9388  -22.8692 C   0  0  0  0  0  0  0  0  0  0  0  0
   -3.2763   21.8852  -22.3042 C   0  0  0  0  0  0  0  0  0  0  0  0
   -3.4429   21.6185  -20.9483 C   0  0  0  0  0  0  0  0  0  0  0  0
   -2.2925   21.4147  -20.2158 C   0  0  0  0  0  0  0  0  0  0  0  0
   -2.3705   21.1690  -18.9848 O   0  0  0  0  0  0  0  0  0  0  0  0
   -1.8642   22.2199  -24.2911 C   0  0  0  0  0  0  0  0  0  0  0  0
   -2.9036   22.5592  -25.0669 N   0  0  0  0  0  0  0  0  0  0  0  0
   -2.7412   22.8159  -26.3861 C   0  0  0  0  0  0  0  0  0  0  0  0
   -1.5002   22.7380  -26.9811 C   0  0  0  0  0  0  0  0  0  0  0  0
   -0.4577   22.3980  -26.2044 N   0  0  0  0  0  0  0  0  0  0  0  0
   -0.6183   22.1390  -24.8763 C   0  0  0  0  0  0  0  0  0  0  0  0
    0.4712   21.7806  -24.0498 N   0  0  0  0  0  0  0  0  0  0  0  0
    0.6926   20.7791  -23.9220 H   0  0  0  0  0  0  0  0  0  0  0  0
    1.0273   22.4981  -23.5892 H   0  0  0  0  0  0  0  0  0  0  0  0
   -3.9047   23.1805  -27.1846 C   0  0  0  0  0  0  0  0  0  0  0  0
   -5.1849   23.4220  -26.7315 C   0  0  0  0  0  0  0  0  0  0  0  0
   -5.9484   23.7275  -27.8073 N   0  0  0  0  0  0  0  0  0  0  0  0
   -5.2225   23.6926  -28.9144 N   0  0  0  0  0  0  0  0  0  0  0  0
   -5.6629   23.9587  -30.2849 C   0  0  0  0  0  0  0  0  0  0  0  0
   -3.9642   23.3581  -28.5500 C   0  0  0  0  0  0  0  0  0  0  0  0
    1.8875   19.8467  -19.1481 C   0  0  0  0  0  0  0  0  0  0  0  0
    2.3853   20.8850  -18.3500 C   0  0  0  0  0  0  0  0  0  0  0  0
    1.7091   22.1030  -18.3824 C   0  0  0  0  0  0  0  0  0  0  0  0
    0.5943   22.2713  -19.1722 C   0  0  0  0  0  0  0  0  0  0  0  0
   -0.2682   23.8101  -19.2195 Cl  0  0  0  0  0  0  0  0  0  0  0  0
    0.0921   21.2495  -19.9672 C   0  0  0  0  0  0  0  0  0  0  0  0
    0.7696   20.0513  -19.9258 C   0  0  0  0  0  0  0  0  0  0  0  0
    0.1809   18.7315  -20.9064 Cl  0  0  0  0  0  0  0  0  0  0  0  0
    3.8581   18.4062  -19.4363 C   0  0  0  0  0  0  0  0  0  0  0  0
    2.5054   18.6113  -19.1675 O   0  0  0  0  0  0  0  0  0  0  0  0
    2.1594   23.1841  -17.6036 O   0  0  0  0  0  0  0  0  0  0  0  0
    2.6857   22.9889  -16.3082 C   0  0  0  0  0  0  0  0  0  0  0  0
 31 32  1  0  0  0
 32 23  1  0  0  0
 23 24  2  0  0  0
 24 25  1  0  0  0
 25 33  1  0  0  0
 33 34  1  0  0  0
 25 26  2  0  0  0
 26 27  1  0  0  0
 26 28  1  0  0  0
 28 29  2  0  0  0
 29 30  1  0  0  0
 28  1  1  0  0  0
  1  2  1  0  0  0
  2  3  2  0  0  0
  3  4  1  0  0  0
  4  5  2  0  0  0
  5  6  1  0  0  0
  6  7  2  0  0  0
  3  8  1  0  0  0
  8  9  2  0  0  0
  9 10  1  0  0  0
 10 11  2  0  0  0
 11 12  1  0  0  0
 12 13  2  0  0  0
 13 14  1  0  0  0
 10 17  1  0  0  0
 17 18  1  0  0  0
 18 19  2  0  0  0
 19 20  1  0  0  0
 20 21  1  0  0  0
 20 22  1  0  0  0
 29 23  1  0  0  0
  6  1  1  0  0  0
 13  8  1  0  0  0
 22 17  2  0  0  0
 14 15  1  0  0  0
 14 16  1  0  0  0
M  END
> <minimizedAffinity>
-7.08757

> <CNNscore>
0.2067302465

> <CNNaffinity>
6.9895873070

> <CNN_VS>
1.4449591637

> <CNNaffinity_variance>
0.4674413800

$$$$
[H]c1nc(N([H])[H])c(-c2nn(-c3c(Cl)c(OC([H])([H])[H])c([H])c(OC([H])([H])[H])c3Cl)c(=O)c([H])c2[H])nc1-c1c([H])nn(C([H])([H])[H])c1[H]


 34 37  0  0  0  0  0  0  0  0999 V2000
    0.6029   20.7320  -21.5212 N   0  0  0  0  0  0  0  0  0  0  0  0
    0.0479   21.0435  -22.6947 N   0  0  0  0  0  0  0  0  0  0  0  0
   -0.7868   22.0558  -22.8818 C   0  0  0  0  0  0  0  0  0  0  0  0
   -1.1026   22.8407  -21.7860 C   0  0  0  0  0  0  0  0  0  0  0  0
   -0.5596   22.5719  -20.5329 C   0  0  0  0  0  0  0  0  0  0  0  0
    0.2972   21.4945  -20.4522 C   0  0  0  0  0  0  0  0  0  0  0  0
    0.8235   21.1954  -19.3498 O   0  0  0  0  0  0  0  0  0  0  0  0
   -1.3677   22.3568  -24.1837 C   0  0  0  0  0  0  0  0  0  0  0  0
   -2.6441   22.7411  -24.3267 N   0  0  0  0  0  0  0  0  0  0  0  0
   -3.1627   23.0156  -25.5467 C   0  0  0  0  0  0  0  0  0  0  0  0
   -2.3970   22.9102  -26.6880 C   0  0  0  0  0  0  0  0  0  0  0  0
   -1.1174   22.5251  -26.5458 N   0  0  0  0  0  0  0  0  0  0  0  0
   -0.5929   22.2481  -25.3191 C   0  0  0  0  0  0  0  0  0  0  0  0
    0.7516   21.8423  -25.1578 N   0  0  0  0  0  0  0  0  0  0  0  0
    0.9719   20.8324  -25.1592 H   0  0  0  0  0  0  0  0  0  0  0  0
    1.4892   22.5343  -25.0425 H   0  0  0  0  0  0  0  0  0  0  0  0
   -4.5567   23.4294  -25.6463 C   0  0  0  0  0  0  0  0  0  0  0  0
   -5.3618   23.3857  -26.7654 C   0  0  0  0  0  0  0  0  0  0  0  0
   -6.5784   23.8640  -26.4126 N   0  0  0  0  0  0  0  0  0  0  0  0
   -6.5872   24.2073  -25.1335 N   0  0  0  0  0  0  0  0  0  0  0  0
   -7.6993   24.7643  -24.3615 C   0  0  0  0  0  0  0  0  0  0  0  0
   -5.3527   23.9468  -24.6474 C   0  0  0  0  0  0  0  0  0  0  0  0
    2.0123   17.3847  -20.6408 C   0  0  0  0  0  0  0  0  0  0  0  0
    3.3163   17.4787  -21.1444 C   0  0  0  0  0  0  0  0  0  0  0  0
    3.6818   18.6706  -21.7668 C   0  0  0  0  0  0  0  0  0  0  0  0
    2.7886   19.7120  -21.8788 C   0  0  0  0  0  0  0  0  0  0  0  0
    3.2427   21.2249  -22.6655 Cl  0  0  0  0  0  0  0  0  0  0  0  0
    1.4939   19.6300  -21.3835 C   0  0  0  0  0  0  0  0  0  0  0  0
    1.1457   18.4470  -20.7708 C   0  0  0  0  0  0  0  0  0  0  0  0
   -0.4711   18.2896  -20.1296 Cl  0  0  0  0  0  0  0  0  0  0  0  0
    1.8694   15.8965  -18.6898 C   0  0  0  0  0  0  0  0  0  0  0  0
    1.5788   16.2341  -20.0111 O   0  0  0  0  0  0  0  0  0  0  0  0
    4.9768   18.8270  -22.2929 O   0  0  0  0  0  0  0  0  0  0  0  0
    5.9762   17.8506  -22.0901 C   0  0  0  0  0  0  0  0  0  0  0  0
 31 32  1  0  0  0
 32 23  1  0  0  0
 23 24  2  0  0  0
 24 25  1  0  0  0
 25 33  1  0  0  0
 33 34  1  0  0  0
 25 26  2  0  0  0
 26 27  1  0  0  0
 26 28  1  0  0  0
 28 29  2  0  0  0
 29 30  1  0  0  0
 28  1  1  0  0  0
  1  2  1  0  0  0
  2  3  2  0  0  0
  3  4  1  0  0  0
  4  5  2  0  0  0
  5  6  1  0  0  0
  6  7  2  0  0  0
  3  8  1  0  0  0
  8  9  2  0  0  0
  9 10  1  0  0  0
 10 11  2  0  0  0
 11 12  1  0  0  0
 12 13  2  0  0  0
 13 14  1  0  0  0
 10 17  1  0  0  0
 17 18  1  0  0  0
 18 19  2  0  0  0
 19 20  1  0  0  0
 20 21  1  0  0  0
 20 22  1  0  0  0
 29 23  1  0  0  0
  6  1  1  0  0  0
 13  8  1  0  0  0
 22 17  2  0  0  0
 14 15  1  0  0  0
 14 16  1  0  0  0
M  END
> <minimizedAffinity>
-6.85105

> <CNNscore>
0.1421712190

> <CNNaffinity>
6.5439453125

> <CNN_VS>
0.9303606749

> <CNNaffinity_variance>
0.1897421479

$$$$
[H]c1nc(N([H])[H])c(-c2nn(-c3c(Cl)c(OC([H])([H])[H])c([H])c(OC([H])([H])[H])c3Cl)c(=O)c([H])c2[H])nc1-c1c([H])nn(C([H])([H])[H])c1[H]


 34 37  0  0  0  0  0  0  0  0999 V2000
   -0.9075   21.4626  -22.2663 N   0  0  0  0  0  0  0  0  0  0  0  0
   -0.4753   20.2524  -21.9046 N   0  0  0  0  0  0  0  0  0  0  0  0
   -0.0585   19.9407  -20.6858 C   0  0  0  0  0  0  0  0  0  0  0  0
   -0.0732   20.9379  -19.7258 C   0  0  0  0  0  0  0  0  0  0  0  0
   -0.5115   22.2224  -20.0348 C   0  0  0  0  0  0  0  0  0  0  0  0
   -0.9229   22.4360  -21.3335 C   0  0  0  0  0  0  0  0  0  0  0  0
   -1.3311   23.5737  -21.6809 O   0  0  0  0  0  0  0  0  0  0  0  0
    0.4046   18.6035  -20.3386 C   0  0  0  0  0  0  0  0  0  0  0  0
   -0.3614   17.7327  -19.6660 N   0  0  0  0  0  0  0  0  0  0  0  0
    0.0899   16.4951  -19.3541 C   0  0  0  0  0  0  0  0  0  0  0  0
    1.3547   16.0840  -19.7167 C   0  0  0  0  0  0  0  0  0  0  0  0
    2.1233   16.9561  -20.3909 N   0  0  0  0  0  0  0  0  0  0  0  0
    1.6716   18.2024  -20.7062 C   0  0  0  0  0  0  0  0  0  0  0  0
    2.4714   19.1278  -21.4150 N   0  0  0  0  0  0  0  0  0  0  0  0
    3.0584   19.7911  -20.8824 H   0  0  0  0  0  0  0  0  0  0  0  0
    2.4680   19.1392  -22.4329 H   0  0  0  0  0  0  0  0  0  0  0  0
   -0.7835   15.5871  -18.6213 C   0  0  0  0  0  0  0  0  0  0  0  0
   -1.2266   15.7227  -17.3222 C   0  0  0  0  0  0  0  0  0  0  0  0
   -2.0145   14.6567  -17.0457 N   0  0  0  0  0  0  0  0  0  0  0  0
   -2.0941   13.8554  -18.0971 N   0  0  0  0  0  0  0  0  0  0  0  0
   -2.8402   12.6015  -18.2153 C   0  0  0  0  0  0  0  0  0  0  0  0
   -1.3436   14.4121  -19.0743 C   0  0  0  0  0  0  0  0  0  0  0  0
   -3.0846   22.0512  -25.2462 C   0  0  0  0  0  0  0  0  0  0  0  0
   -2.1391   22.2858  -26.2530 C   0  0  0  0  0  0  0  0  0  0  0  0
   -0.7929   22.2381  -25.8960 C   0  0  0  0  0  0  0  0  0  0  0  0
   -0.4149   21.9701  -24.5998 C   0  0  0  0  0  0  0  0  0  0  0  0
    1.2873   21.9079  -24.1386 Cl  0  0  0  0  0  0  0  0  0  0  0  0
   -1.3432   21.7362  -23.5939 C   0  0  0  0  0  0  0  0  0  0  0  0
   -2.6697   21.7861  -23.9601 C   0  0  0  0  0  0  0  0  0  0  0  0
   -3.8799   21.4992  -22.7341 Cl  0  0  0  0  0  0  0  0  0  0  0  0
   -5.1133   23.1840  -26.0477 C   0  0  0  0  0  0  0  0  0  0  0  0
   -4.4371   22.0821  -25.5253 O   0  0  0  0  0  0  0  0  0  0  0  0
    0.2045   22.4649  -26.8613 O   0  0  0  0  0  0  0  0  0  0  0  0
   -0.1080   22.9971  -28.1311 C   0  0  0  0  0  0  0  0  0  0  0  0
 31 32  1  0  0  0
 32 23  1  0  0  0
 23 24  2  0  0  0
 24 25  1  0  0  0
 25 33  1  0  0  0
 33 34  1  0  0  0
 25 26  2  0  0  0
 26 27  1  0  0  0
 26 28  1  0  0  0
 28 29  2  0  0  0
 29 30  1  0  0  0
 28  1  1  0  0  0
  1  2  1  0  0  0
  2  3  2  0  0  0
  3  4  1  0  0  0
  4  5  2  0  0  0
  5  6  1  0  0  0
  6  7  2  0  0  0
  3  8  1  0  0  0
  8  9  2  0  0  0
  9 10  1  0  0  0
 10 11  2  0  0  0
 11 12  1  0  0  0
 12 13  2  0  0  0
 13 14  1  0  0  0
 10 17  1  0  0  0
 17 18  1  0  0  0
 18 19  2  0  0  0
 19 20  1  0  0  0
 20 21  1  0  0  0
 20 22  1  0  0  0
 29 23  1  0  0  0
  6  1  1  0  0  0
 13  8  1  0  0  0
 22 17  2  0  0  0
 14 15  1  0  0  0
 14 16  1  0  0  0
M  END
> <minimizedAffinity>
-6.57327

> <CNNscore>
0.1312890351

> <CNNaffinity>
6.3637318611

> <CNN_VS>
0.8354882002

> <CNNaffinity_variance>
0.0355839990

$$$$
[H]c1nc(N([H])[H])c(-c2nn(-c3c(Cl)c(OC([H])([H])[H])c([H])c(OC([H])([H])[H])c3Cl)c(=O)c([H])c2[H])nc1-c1c([H])nn(C([H])([H])[H])c1[H]


 34 37  0  0  0  0  0  0  0  0999 V2000
   -1.2741   21.6328  -22.0070 N   0  0  0  0  0  0  0  0  0  0  0  0
   -0.7122   20.4384  -21.8077 N   0  0  0  0  0  0  0  0  0  0  0  0
    0.1079   20.1557  -20.8058 C   0  0  0  0  0  0  0  0  0  0  0  0
    0.3996   21.1679  -19.9075 C   0  0  0  0  0  0  0  0  0  0  0  0
   -0.1518   22.4372  -20.0558 C   0  0  0  0  0  0  0  0  0  0  0  0
   -0.9919   22.6206  -21.1339 C   0  0  0  0  0  0  0  0  0  0  0  0
   -1.5246   23.7433  -21.3275 O   0  0  0  0  0  0  0  0  0  0  0  0
    0.6973   18.8348  -20.6297 C   0  0  0  0  0  0  0  0  0  0  0  0
    1.8390   18.4740  -21.2329 N   0  0  0  0  0  0  0  0  0  0  0  0
    2.3683   17.2408  -21.0547 C   0  0  0  0  0  0  0  0  0  0  0  0
    1.7526   16.3097  -20.2459 C   0  0  0  0  0  0  0  0  0  0  0  0
    0.6083   16.6704  -19.6409 N   0  0  0  0  0  0  0  0  0  0  0  0
    0.0732   17.9109  -19.8185 C   0  0  0  0  0  0  0  0  0  0  0  0
   -1.1299   18.3010  -19.1870 N   0  0  0  0  0  0  0  0  0  0  0  0
   -2.0240   18.1611  -19.6864 H   0  0  0  0  0  0  0  0  0  0  0  0
   -1.1142   18.7124  -18.2560 H   0  0  0  0  0  0  0  0  0  0  0  0
    3.6118   16.8995  -21.7340 C   0  0  0  0  0  0  0  0  0  0  0  0
    4.5899   17.7689  -22.1700 C   0  0  0  0  0  0  0  0  0  0  0  0
    5.5676   17.0291  -22.7448 N   0  0  0  0  0  0  0  0  0  0  0  0
    5.2621   15.7413  -22.6964 N   0  0  0  0  0  0  0  0  0  0  0  0
    6.0457   14.6135  -23.2034 C   0  0  0  0  0  0  0  0  0  0  0  0
    4.0634   15.6438  -22.0785 C   0  0  0  0  0  0  0  0  0  0  0  0
   -4.3616   22.0875  -24.0629 C   0  0  0  0  0  0  0  0  0  0  0  0
   -3.8279   22.3663  -25.3280 C   0  0  0  0  0  0  0  0  0  0  0  0
   -2.4400   22.3924  -25.4498 C   0  0  0  0  0  0  0  0  0  0  0  0
   -1.6307   22.1523  -24.3626 C   0  0  0  0  0  0  0  0  0  0  0  0
    0.1278   22.1834  -24.5075 Cl  0  0  0  0  0  0  0  0  0  0  0  0
   -2.1485   21.8751  -23.1042 C   0  0  0  0  0  0  0  0  0  0  0  0
   -3.5212   21.8523  -22.9976 C   0  0  0  0  0  0  0  0  0  0  0  0
   -4.2263   21.5085  -21.4373 Cl  0  0  0  0  0  0  0  0  0  0  0  0
   -6.5582   23.1644  -23.8256 C   0  0  0  0  0  0  0  0  0  0  0  0
   -5.7282   22.0448  -23.8659 O   0  0  0  0  0  0  0  0  0  0  0  0
   -1.8431   22.6663  -26.6935 O   0  0  0  0  0  0  0  0  0  0  0  0
   -2.6216   22.9447  -27.8379 C   0  0  0  0  0  0  0  0  0  0  0  0
 31 32  1  0  0  0
 32 23  1  0  0  0
 23 24  2  0  0  0
 24 25  1  0  0  0
 25 33  1  0  0  0
 33 34  1  0  0  0
 25 26  2  0  0  0
 26 27  1  0  0  0
 26 28  1  0  0  0
 28 29  2  0  0  0
 29 30  1  0  0  0
 28  1  1  0  0  0
  1  2  1  0  0  0
  2  3  2  0  0  0
  3  4  1  0  0  0
  4  5  2  0  0  0
  5  6  1  0  0  0
  6  7  2  0  0  0
  3  8  1  0  0  0
  8  9  2  0  0  0
  9 10  1  0  0  0
 10 11  2  0  0  0
 11 12  1  0  0  0
 12 13  2  0  0  0
 13 14  1  0  0  0
 10 17  1  0  0  0
 17 18  1  0  0  0
 18 19  2  0  0  0
 19 20  1  0  0  0
 20 21  1  0  0  0
 20 22  1  0  0  0
 29 23  1  0  0  0
  6  1  1  0  0  0
 13  8  1  0  0  0
 22 17  2  0  0  0
 14 15  1  0  0  0
 14 16  1  0  0  0
M  END
> <minimizedAffinity>
-6.83148

> <CNNscore>
0.1183125079

> <CNNaffinity>
6.0632524490

> <CNN_VS>
0.7173585892

> <CNNaffinity_variance>
0.1709597409

$$$$
[H]c1nc(N([H])[H])c(-c2nn(-c3c([H])c(OC([H])([H])[H])c([H])c(OC([H])([H])[H])c3[H])c(=O)c([H])c2[H])nc1-c1c([H])nn(C2([H])C([H])([H])C([H])([H])N([H])C([H])([H])C2([H])[H])c1[H]


 38 42  0  0  0  0  0  0  0  0999 V2000
   -2.2105   22.7648  -26.3884 C   0  0  0  0  0  0  0  0  0  0  0  0
   -1.5876   22.3804  -25.2466 N   0  0  0  0  0  0  0  0  0  0  0  0
   -0.2762   22.0893  -25.2423 C   0  0  0  0  0  0  0  0  0  0  0  0
    0.3960   22.1988  -26.4379 C   0  0  0  0  0  0  0  0  0  0  0  0
   -0.2163   22.5801  -27.5764 N   0  0  0  0  0  0  0  0  0  0  0  0
   -1.5316   22.8710  -27.5756 C   0  0  0  0  0  0  0  0  0  0  0  0
   -2.2102   23.2801  -28.7744 N   0  0  0  0  0  0  0  0  0  0  0  0
   -2.6794   22.5827  -29.3855 H   0  0  0  0  0  0  0  0  0  0  0  0
   -2.2549   24.2809  -29.0697 H   0  0  0  0  0  0  0  0  0  0  0  0
   -5.6377   23.4453  -25.2477 N   0  0  0  0  0  0  0  0  0  0  0  0
   -4.3343   23.1587  -25.2489 N   0  0  0  0  0  0  0  0  0  0  0  0
   -3.6355   23.0774  -26.3763 C   0  0  0  0  0  0  0  0  0  0  0  0
   -4.2864   23.2967  -27.5621 C   0  0  0  0  0  0  0  0  0  0  0  0
   -5.6293   23.5958  -27.6204 C   0  0  0  0  0  0  0  0  0  0  0  0
   -6.2955   23.6640  -26.4020 C   0  0  0  0  0  0  0  0  0  0  0  0
   -7.5242   23.9337  -26.3942 O   0  0  0  0  0  0  0  0  0  0  0  0
   -7.6019   24.9191  -22.4703 C   0  0  0  0  0  0  0  0  0  0  0  0
   -7.8886   23.7829  -21.7328 C   0  0  0  0  0  0  0  0  0  0  0  0
   -7.4552   22.5311  -22.1179 C   0  0  0  0  0  0  0  0  0  0  0  0
   -6.7201   22.4346  -23.2692 C   0  0  0  0  0  0  0  0  0  0  0  0
   -6.4002   23.5361  -24.0510 C   0  0  0  0  0  0  0  0  0  0  0  0
   -6.8566   24.7655  -23.6238 C   0  0  0  0  0  0  0  0  0  0  0  0
   -8.4139   26.5450  -20.8151 C   0  0  0  0  0  0  0  0  0  0  0  0
   -8.0250   26.1883  -22.1060 O   0  0  0  0  0  0  0  0  0  0  0  0
   -7.7595   21.4119  -21.3564 O   0  0  0  0  0  0  0  0  0  0  0  0
   -8.5249   21.4391  -20.1921 C   0  0  0  0  0  0  0  0  0  0  0  0
    0.3838   21.6773  -24.0112 C   0  0  0  0  0  0  0  0  0  0  0  0
   -0.1751   21.4030  -22.7818 C   0  0  0  0  0  0  0  0  0  0  0  0
    0.8135   21.0680  -21.9653 N   0  0  0  0  0  0  0  0  0  0  0  0
    1.9818   21.0999  -22.5609 N   0  0  0  0  0  0  0  0  0  0  0  0
    1.7427   21.4766  -23.8362 C   0  0  0  0  0  0  0  0  0  0  0  0
    3.2859   20.7967  -21.9900 C   0  0  0  0  0  0  0  0  0  0  0  0
    3.5479   19.3320  -22.1900 C   0  0  0  0  0  0  0  0  0  0  0  0
    4.8652   18.9146  -21.5816 C   0  0  0  0  0  0  0  0  0  0  0  0
    5.1679   19.6769  -20.3785 N   0  0  0  0  0  0  0  0  0  0  0  0
    3.9478   20.1044  -19.7152 C   0  0  0  0  0  0  0  0  0  0  0  0
    3.3075   21.2023  -20.5373 C   0  0  0  0  0  0  0  0  0  0  0  0
    5.6892   20.5660  -20.6140 H   0  0  0  0  0  0  0  0  0  0  0  0
 23 24  1  0  0  0
 24 17  1  0  0  0
 17 18  2  0  0  0
 18 19  1  0  0  0
 19 25  1  0  0  0
 25 26  1  0  0  0
 19 20  2  0  0  0
 20 21  1  0  0  0
 21 22  2  0  0  0
 21 10  1  0  0  0
 10 11  1  0  0  0
 11 12  2  0  0  0
 12 13  1  0  0  0
 13 14  2  0  0  0
 14 15  1  0  0  0
 15 16  2  0  0  0
 12  1  1  0  0  0
  1  2  2  0  0  0
  2  3  1  0  0  0
  3  4  2  0  0  0
  4  5  1  0  0  0
  5  6  2  0  0  0
  6  7  1  0  0  0
  3 27  1  0  0  0
 27 28  1  0  0  0
 28 29  2  0  0  0
 29 30  1  0  0  0
 30 31  1  0  0  0
 30 32  1  0  0  0
 32 33  1  0  0  0
 33 34  1  0  0  0
 34 35  1  0  0  0
 35 36  1  0  0  0
 36 37  1  0  0  0
 22 17  1  0  0  0
 15 10  1  0  0  0
  6  1  1  0  0  0
 31 27  2  0  0  0
 37 32  1  0  0  0
  7  8  1  0  0  0
  7  9  1  0  0  0
 35 38  1  0  0  0
M  END
> <minimizedAffinity>
-9.25363

> <CNNscore>
0.7046689987

> <CNNaffinity>
7.4982094765

> <CNN_VS>
5.2837557793

> <CNNaffinity_variance>
0.1619458497

$$$$
[H]c1nc(N([H])[H])c(-c2nn(-c3c([H])c(OC([H])([H])[H])c([H])c(OC([H])([H])[H])c3[H])c(=O)c([H])c2[H])nc1-c1c([H])nn(C2([H])C([H])([H])C([H])([H])N([H])C([H])([H])C2([H])[H])c1[H]


 38 42  0  0  0  0  0  0  0  0999 V2000
   -1.9626   22.5643  -25.7502 C   0  0  0  0  0  0  0  0  0  0  0  0
   -1.4839   22.1854  -24.5391 N   0  0  0  0  0  0  0  0  0  0  0  0
   -0.1913   21.8548  -24.3825 C   0  0  0  0  0  0  0  0  0  0  0  0
    0.6134   21.9187  -25.4967 C   0  0  0  0  0  0  0  0  0  0  0  0
    0.1447   22.2941  -26.7033 N   0  0  0  0  0  0  0  0  0  0  0  0
   -1.1523   22.6247  -26.8553 C   0  0  0  0  0  0  0  0  0  0  0  0
   -1.6792   23.0287  -28.1298 N   0  0  0  0  0  0  0  0  0  0  0  0
   -2.0996   22.3330  -28.7773 H   0  0  0  0  0  0  0  0  0  0  0  0
   -1.6581   24.0239  -28.4459 H   0  0  0  0  0  0  0  0  0  0  0  0
   -5.4629   23.4084  -25.0116 N   0  0  0  0  0  0  0  0  0  0  0  0
   -4.1774   23.0828  -24.8614 N   0  0  0  0  0  0  0  0  0  0  0  0
   -3.3692   22.9201  -25.9037 C   0  0  0  0  0  0  0  0  0  0  0  0
   -3.8857   23.0951  -27.1608 C   0  0  0  0  0  0  0  0  0  0  0  0
   -5.2038   23.4312  -27.3748 C   0  0  0  0  0  0  0  0  0  0  0  0
   -5.9895   23.5848  -26.2382 C   0  0  0  0  0  0  0  0  0  0  0  0
   -7.2020   23.8916  -26.3731 O   0  0  0  0  0  0  0  0  0  0  0  0
   -7.6175   22.5960  -22.1061 C   0  0  0  0  0  0  0  0  0  0  0  0
   -8.0496   23.8623  -21.7500 C   0  0  0  0  0  0  0  0  0  0  0  0
   -7.6548   24.9912  -22.4377 C   0  0  0  0  0  0  0  0  0  0  0  0
   -6.8088   24.8288  -23.5023 C   0  0  0  0  0  0  0  0  0  0  0  0
   -6.3413   23.5863  -23.9079 C   0  0  0  0  0  0  0  0  0  0  0  0
   -6.7647   22.4886  -23.1881 C   0  0  0  0  0  0  0  0  0  0  0  0
   -8.3523   21.4071  -20.0840 C   0  0  0  0  0  0  0  0  0  0  0  0
   -7.9987   21.4456  -21.4325 O   0  0  0  0  0  0  0  0  0  0  0  0
   -8.1059   26.2464  -22.0555 O   0  0  0  0  0  0  0  0  0  0  0  0
   -8.6551   26.5366  -20.8079 C   0  0  0  0  0  0  0  0  0  0  0  0
    0.3133   21.4492  -23.0779 C   0  0  0  0  0  0  0  0  0  0  0  0
   -0.3401   21.4373  -21.8647 C   0  0  0  0  0  0  0  0  0  0  0  0
    0.5181   20.9906  -20.9592 N   0  0  0  0  0  0  0  0  0  0  0  0
    1.6877   20.7068  -21.4810 N   0  0  0  0  0  0  0  0  0  0  0  0
    1.5874   20.9834  -22.7996 C   0  0  0  0  0  0  0  0  0  0  0  0
    2.8702   20.1966  -20.8027 C   0  0  0  0  0  0  0  0  0  0  0  0
    3.8290   21.3382  -20.6254 C   0  0  0  0  0  0  0  0  0  0  0  0
    5.1131   20.8892  -19.9704 C   0  0  0  0  0  0  0  0  0  0  0  0
    5.4687   19.5314  -20.3577 N   0  0  0  0  0  0  0  0  0  0  0  0
    4.9594   19.2203  -21.6825 C   0  0  0  0  0  0  0  0  0  0  0  0
    3.4567   19.0577  -21.5990 C   0  0  0  0  0  0  0  0  0  0  0  0
    5.0249   18.8236  -19.7097 H   0  0  0  0  0  0  0  0  0  0  0  0
 23 24  1  0  0  0
 24 17  1  0  0  0
 17 18  2  0  0  0
 18 19  1  0  0  0
 19 25  1  0  0  0
 25 26  1  0  0  0
 19 20  2  0  0  0
 20 21  1  0  0  0
 21 22  2  0  0  0
 21 10  1  0  0  0
 10 11  1  0  0  0
 11 12  2  0  0  0
 12 13  1  0  0  0
 13 14  2  0  0  0
 14 15  1  0  0  0
 15 16  2  0  0  0
 12  1  1  0  0  0
  1  2  2  0  0  0
  2  3  1  0  0  0
  3  4  2  0  0  0
  4  5  1  0  0  0
  5  6  2  0  0  0
  6  7  1  0  0  0
  3 27  1  0  0  0
 27 28  1  0  0  0
 28 29  2  0  0  0
 29 30  1  0  0  0
 30 31  1  0  0  0
 30 32  1  0  0  0
 32 33  1  0  0  0
 33 34  1  0  0  0
 34 35  1  0  0  0
 35 36  1  0  0  0
 36 37  1  0  0  0
 22 17  1  0  0  0
 15 10  1  0  0  0
  6  1  1  0  0  0
 31 27  2  0  0  0
 37 32  1  0  0  0
  7  8  1  0  0  0
  7  9  1  0  0  0
 35 38  1  0  0  0
M  END
> <minimizedAffinity>
-8.69661

> <CNNscore>
0.5760167837

> <CNNaffinity>
7.2759618759

> <CNN_VS>
4.1910762787

> <CNNaffinity_variance>
0.2193944007

$$$$
[H]c1nc(N([H])[H])c(-c2nn(-c3c([H])c(OC([H])([H])[H])c([H])c(OC([H])([H])[H])c3[H])c(=O)c([H])c2[H])nc1-c1c([H])nn(C2([H])C([H])([H])C([H])([H])N([H])C([H])([H])C2([H])[H])c1[H]


 38 42  0  0  0  0  0  0  0  0999 V2000
   -2.3300   22.8594  -26.4786 C   0  0  0  0  0  0  0  0  0  0  0  0
   -1.6812   22.4557  -25.3580 N   0  0  0  0  0  0  0  0  0  0  0  0
   -0.3725   22.1544  -25.3910 C   0  0  0  0  0  0  0  0  0  0  0  0
    0.2697   22.2738  -26.6019 C   0  0  0  0  0  0  0  0  0  0  0  0
   -0.3683   22.6742  -27.7195 N   0  0  0  0  0  0  0  0  0  0  0  0
   -1.6808   22.9752  -27.6814 C   0  0  0  0  0  0  0  0  0  0  0  0
   -2.3865   23.4047  -28.8572 N   0  0  0  0  0  0  0  0  0  0  0  0
   -2.8767   22.7187  -29.4647 H   0  0  0  0  0  0  0  0  0  0  0  0
   -2.4307   24.4094  -29.1389 H   0  0  0  0  0  0  0  0  0  0  0  0
   -5.7076   23.6116  -25.2394 N   0  0  0  0  0  0  0  0  0  0  0  0
   -4.4069   23.3155  -25.2776 N   0  0  0  0  0  0  0  0  0  0  0  0
   -3.7517   23.1829  -26.4261 C   0  0  0  0  0  0  0  0  0  0  0  0
   -4.4455   23.3582  -27.5947 C   0  0  0  0  0  0  0  0  0  0  0  0
   -5.7878   23.6646  -27.6150 C   0  0  0  0  0  0  0  0  0  0  0  0
   -6.4071   23.7877  -26.3764 C   0  0  0  0  0  0  0  0  0  0  0  0
   -7.6331   24.0667  -26.3337 O   0  0  0  0  0  0  0  0  0  0  0  0
   -7.4551   22.7135  -22.0955 C   0  0  0  0  0  0  0  0  0  0  0  0
   -7.8164   23.9699  -21.6394 C   0  0  0  0  0  0  0  0  0  0  0  0
   -7.5036   25.1194  -22.3350 C   0  0  0  0  0  0  0  0  0  0  0  0
   -6.8138   24.9883  -23.5107 C   0  0  0  0  0  0  0  0  0  0  0  0
   -6.4239   23.7572  -24.0199 C   0  0  0  0  0  0  0  0  0  0  0  0
   -6.7602   22.6378  -23.2876 C   0  0  0  0  0  0  0  0  0  0  0  0
   -7.2750   21.2263  -20.1466 C   0  0  0  0  0  0  0  0  0  0  0  0
   -7.7567   21.5428  -21.4165 O   0  0  0  0  0  0  0  0  0  0  0  0
   -7.8802   26.3639  -21.8507 O   0  0  0  0  0  0  0  0  0  0  0  0
   -8.6945   26.5590  -20.7367 C   0  0  0  0  0  0  0  0  0  0  0  0
    0.3153   21.7219  -24.1824 C   0  0  0  0  0  0  0  0  0  0  0  0
    1.6534   21.4464  -24.0018 C   0  0  0  0  0  0  0  0  0  0  0  0
    1.8149   21.0887  -22.7361 N   0  0  0  0  0  0  0  0  0  0  0  0
    0.6867   21.1067  -22.0672 N   0  0  0  0  0  0  0  0  0  0  0  0
   -0.2636   21.4977  -22.9445 C   0  0  0  0  0  0  0  0  0  0  0  0
    0.4719   20.7779  -20.6656 C   0  0  0  0  0  0  0  0  0  0  0  0
    0.1331   19.3177  -20.5809 C   0  0  0  0  0  0  0  0  0  0  0  0
   -0.1561   18.8954  -19.1605 C   0  0  0  0  0  0  0  0  0  0  0  0
   -0.7925   19.9623  -18.4009 N   0  0  0  0  0  0  0  0  0  0  0  0
   -1.5656   20.8296  -19.2734 C   0  0  0  0  0  0  0  0  0  0  0  0
   -0.6098   21.6637  -20.0995 C   0  0  0  0  0  0  0  0  0  0  0  0
   -0.0706   20.5872  -17.9468 H   0  0  0  0  0  0  0  0  0  0  0  0
 23 24  1  0  0  0
 24 17  1  0  0  0
 17 18  2  0  0  0
 18 19  1  0  0  0
 19 25  1  0  0  0
 25 26  1  0  0  0
 19 20  2  0  0  0
 20 21  1  0  0  0
 21 22  2  0  0  0
 21 10  1  0  0  0
 10 11  1  0  0  0
 11 12  2  0  0  0
 12 13  1  0  0  0
 13 14  2  0  0  0
 14 15  1  0  0  0
 15 16  2  0  0  0
 12  1  1  0  0  0
  1  2  2  0  0  0
  2  3  1  0  0  0
  3  4  2  0  0  0
  4  5  1  0  0  0
  5  6  2  0  0  0
  6  7  1  0  0  0
  3 27  1  0  0  0
 27 28  1  0  0  0
 28 29  2  0  0  0
 29 30  1  0  0  0
 30 31  1  0  0  0
 30 32  1  0  0  0
 32 33  1  0  0  0
 33 34  1  0  0  0
 34 35  1  0  0  0
 35 36  1  0  0  0
 36 37  1  0  0  0
 22 17  1  0  0  0
 15 10  1  0  0  0
  6  1  1  0  0  0
 31 27  2  0  0  0
 37 32  1  0  0  0
  7  8  1  0  0  0
  7  9  1  0  0  0
 35 38  1  0  0  0
M  END
> <minimizedAffinity>
-8.95775

> <CNNscore>
0.5530665517

> <CNNaffinity>
7.3606987000

> <CNN_VS>
4.0709562302

> <CNNaffinity_variance>
0.1605795324

$$$$
[H]c1nc(N([H])[H])c(-c2nn(-c3c([H])c(OC([H])([H])[H])c([H])c(OC([H])([H])[H])c3[H])c(=O)c([H])c2[H])nc1-c1c([H])nn(C2([H])C([H])([H])C([H])([H])N([H])C([H])([H])C2([H])[H])c1[H]


 38 42  0  0  0  0  0  0  0  0999 V2000
   -2.3766   22.8119  -26.2967 C   0  0  0  0  0  0  0  0  0  0  0  0
   -1.7842   22.4668  -25.1264 N   0  0  0  0  0  0  0  0  0  0  0  0
   -0.4758   22.1663  -25.0795 C   0  0  0  0  0  0  0  0  0  0  0  0
    0.2255   22.2250  -26.2618 C   0  0  0  0  0  0  0  0  0  0  0  0
   -0.3564   22.5669  -27.4284 N   0  0  0  0  0  0  0  0  0  0  0  0
   -1.6689   22.8675  -27.4703 C   0  0  0  0  0  0  0  0  0  0  0  0
   -2.3154   23.2354  -28.6998 N   0  0  0  0  0  0  0  0  0  0  0  0
   -2.7757   22.5186  -29.2950 H   0  0  0  0  0  0  0  0  0  0  0  0
   -2.3447   24.2245  -29.0341 H   0  0  0  0  0  0  0  0  0  0  0  0
   -5.8249   23.5573  -25.2655 N   0  0  0  0  0  0  0  0  0  0  0  0
   -4.5244   23.2612  -25.2245 N   0  0  0  0  0  0  0  0  0  0  0  0
   -3.7989   23.1354  -26.3307 C   0  0  0  0  0  0  0  0  0  0  0  0
   -4.4187   23.3180  -27.5392 C   0  0  0  0  0  0  0  0  0  0  0  0
   -5.7572   23.6249  -27.6411 C   0  0  0  0  0  0  0  0  0  0  0  0
   -6.4524   23.7405  -26.4427 C   0  0  0  0  0  0  0  0  0  0  0  0
   -7.6786   24.0195  -26.4747 O   0  0  0  0  0  0  0  0  0  0  0  0
   -8.1203   25.0494  -22.7656 C   0  0  0  0  0  0  0  0  0  0  0  0
   -8.1739   24.0291  -21.8311 C   0  0  0  0  0  0  0  0  0  0  0  0
   -7.4746   22.8509  -21.9922 C   0  0  0  0  0  0  0  0  0  0  0  0
   -6.7103   22.7095  -23.1197 C   0  0  0  0  0  0  0  0  0  0  0  0
   -6.6158   23.6956  -24.0920 C   0  0  0  0  0  0  0  0  0  0  0  0
   -7.3338   24.8549  -23.8850 C   0  0  0  0  0  0  0  0  0  0  0  0
  -10.1654   26.3314  -22.3005 C   0  0  0  0  0  0  0  0  0  0  0  0
   -8.8127   26.2427  -22.6283 O   0  0  0  0  0  0  0  0  0  0  0  0
   -7.5496   21.8474  -21.0370 O   0  0  0  0  0  0  0  0  0  0  0  0
   -6.4661   21.3972  -20.2850 C   0  0  0  0  0  0  0  0  0  0  0  0
    0.1513   21.7969  -23.8180 C   0  0  0  0  0  0  0  0  0  0  0  0
    1.4107   21.2830  -23.5975 C   0  0  0  0  0  0  0  0  0  0  0  0
    1.5400   21.1035  -22.2909 N   0  0  0  0  0  0  0  0  0  0  0  0
    0.4631   21.4592  -21.6319 N   0  0  0  0  0  0  0  0  0  0  0  0
   -0.4176   21.8949  -22.5593 C   0  0  0  0  0  0  0  0  0  0  0  0
    0.2348   21.4067  -20.1953 C   0  0  0  0  0  0  0  0  0  0  0  0
   -0.5611   20.1685  -19.8995 C   0  0  0  0  0  0  0  0  0  0  0  0
   -0.8891   20.0562  -18.4300 C   0  0  0  0  0  0  0  0  0  0  0  0
   -1.0921   21.3638  -17.8225 N   0  0  0  0  0  0  0  0  0  0  0  0
   -1.5858   22.3185  -18.8002 C   0  0  0  0  0  0  0  0  0  0  0  0
   -0.4589   22.6692  -19.7481 C   0  0  0  0  0  0  0  0  0  0  0  0
   -0.1791   21.7644  -17.4707 H   0  0  0  0  0  0  0  0  0  0  0  0
 23 24  1  0  0  0
 24 17  1  0  0  0
 17 18  2  0  0  0
 18 19  1  0  0  0
 19 25  1  0  0  0
 25 26  1  0  0  0
 19 20  2  0  0  0
 20 21  1  0  0  0
 21 22  2  0  0  0
 21 10  1  0  0  0
 10 11  1  0  0  0
 11 12  2  0  0  0
 12 13  1  0  0  0
 13 14  2  0  0  0
 14 15  1  0  0  0
 15 16  2  0  0  0
 12  1  1  0  0  0
  1  2  2  0  0  0
  2  3  1  0  0  0
  3  4  2  0  0  0
  4  5  1  0  0  0
  5  6  2  0  0  0
  6  7  1  0  0  0
  3 27  1  0  0  0
 27 28  1  0  0  0
 28 29  2  0  0  0
 29 30  1  0  0  0
 30 31  1  0  0  0
 30 32  1  0  0  0
 32 33  1  0  0  0
 33 34  1  0  0  0
 34 35  1  0  0  0
 35 36  1  0  0  0
 36 37  1  0  0  0
 22 17  1  0  0  0
 15 10  1  0  0  0
  6  1  1  0  0  0
 31 27  2  0  0  0
 37 32  1  0  0  0
  7  8  1  0  0  0
  7  9  1  0  0  0
 35 38  1  0  0  0
M  END
> <minimizedAffinity>
-8.82669

> <CNNscore>
0.5084812641

> <CNNaffinity>
7.2455368042

> <CNN_VS>
3.6842195988

> <CNNaffinity_variance>
0.1833736300

$$$$
[H]c1nc(N([H])[H])c(-c2nn(-c3c([H])c(OC([H])([H])[H])c([H])c(OC([H])([H])[H])c3[H])c(=O)c([H])c2[H])nc1-c1c([H])nn(C2([H])C([H])([H])C([H])([H])N([H])C([H])([H])C2([H])[H])c1[H]


 38 42  0  0  0  0  0  0  0  0999 V2000
   -0.0287   21.7053  -23.7178 C   0  0  0  0  0  0  0  0  0  0  0  0
   -1.2238   22.1397  -24.1896 N   0  0  0  0  0  0  0  0  0  0  0  0
   -1.3798   22.4510  -25.4870 C   0  0  0  0  0  0  0  0  0  0  0  0
   -0.2817   22.3094  -26.3039 C   0  0  0  0  0  0  0  0  0  0  0  0
    0.9089   21.8784  -25.8423 N   0  0  0  0  0  0  0  0  0  0  0  0
    1.0604   21.5674  -24.5403 C   0  0  0  0  0  0  0  0  0  0  0  0
    2.3180   21.1055  -24.0207 N   0  0  0  0  0  0  0  0  0  0  0  0
    3.0081   21.7734  -23.6237 H   0  0  0  0  0  0  0  0  0  0  0  0
    2.5791   20.0942  -24.0240 H   0  0  0  0  0  0  0  0  0  0  0  0
    1.4236   21.1487  -20.3876 N   0  0  0  0  0  0  0  0  0  0  0  0
    1.2933   21.4564  -21.6796 N   0  0  0  0  0  0  0  0  0  0  0  0
    0.1243   21.3713  -22.3059 C   0  0  0  0  0  0  0  0  0  0  0  0
   -0.9677   20.9542  -21.5909 C   0  0  0  0  0  0  0  0  0  0  0  0
   -0.8915   20.6240  -20.2562 C   0  0  0  0  0  0  0  0  0  0  0  0
    0.3629   20.7370  -19.6676 C   0  0  0  0  0  0  0  0  0  0  0  0
    0.4923   20.4484  -18.4500 O   0  0  0  0  0  0  0  0  0  0  0  0
    4.8619   20.3051  -19.2871 C   0  0  0  0  0  0  0  0  0  0  0  0
    5.1053   21.3414  -18.4017 C   0  0  0  0  0  0  0  0  0  0  0  0
    4.1694   22.3225  -18.1475 C   0  0  0  0  0  0  0  0  0  0  0  0
    2.9696   22.2478  -18.8035 C   0  0  0  0  0  0  0  0  0  0  0  0
    2.6664   21.2342  -19.7021 C   0  0  0  0  0  0  0  0  0  0  0  0
    3.6349   20.2772  -19.9222 C   0  0  0  0  0  0  0  0  0  0  0  0
    5.5059   17.9419  -19.4945 C   0  0  0  0  0  0  0  0  0  0  0  0
    5.7845   19.3068  -19.5605 O   0  0  0  0  0  0  0  0  0  0  0  0
    4.4442   23.3480  -17.2542 O   0  0  0  0  0  0  0  0  0  0  0  0
    3.8449   24.6056  -17.2945 C   0  0  0  0  0  0  0  0  0  0  0  0
   -2.6671   22.9167  -25.9841 C   0  0  0  0  0  0  0  0  0  0  0  0
   -3.2605   22.6750  -27.2041 C   0  0  0  0  0  0  0  0  0  0  0  0
   -4.4271   23.3036  -27.2064 N   0  0  0  0  0  0  0  0  0  0  0  0
   -4.6495   23.9416  -26.0820 N   0  0  0  0  0  0  0  0  0  0  0  0
   -3.5687   23.7172  -25.3030 C   0  0  0  0  0  0  0  0  0  0  0  0
   -5.8135   24.7368  -25.7195 C   0  0  0  0  0  0  0  0  0  0  0  0
   -5.3334   25.9341  -24.9513 C   0  0  0  0  0  0  0  0  0  0  0  0
   -6.4836   26.7959  -24.4889 C   0  0  0  0  0  0  0  0  0  0  0  0
   -7.6608   25.9988  -24.1743 N   0  0  0  0  0  0  0  0  0  0  0  0
   -7.2823   24.6658  -23.7371 C   0  0  0  0  0  0  0  0  0  0  0  0
   -6.7807   23.8866  -24.9341 C   0  0  0  0  0  0  0  0  0  0  0  0
   -8.2624   25.8560  -25.0318 H   0  0  0  0  0  0  0  0  0  0  0  0
 23 24  1  0  0  0
 24 17  1  0  0  0
 17 18  2  0  0  0
 18 19  1  0  0  0
 19 25  1  0  0  0
 25 26  1  0  0  0
 19 20  2  0  0  0
 20 21  1  0  0  0
 21 22  2  0  0  0
 21 10  1  0  0  0
 10 11  1  0  0  0
 11 12  2  0  0  0
 12 13  1  0  0  0
 13 14  2  0  0  0
 14 15  1  0  0  0
 15 16  2  0  0  0
 12  1  1  0  0  0
  1  2  2  0  0  0
  2  3  1  0  0  0
  3  4  2  0  0  0
  4  5  1  0  0  0
  5  6  2  0  0  0
  6  7  1  0  0  0
  3 27  1  0  0  0
 27 28  1  0  0  0
 28 29  2  0  0  0
 29 30  1  0  0  0
 30 31  1  0  0  0
 30 32  1  0  0  0
 32 33  1  0  0  0
 33 34  1  0  0  0
 34 35  1  0  0  0
 35 36  1  0  0  0
 36 37  1  0  0  0
 22 17  1  0  0  0
 15 10  1  0  0  0
  6  1  1  0  0  0
 31 27  2  0  0  0
 37 32  1  0  0  0
  7  8  1  0  0  0
  7  9  1  0  0  0
 35 38  1  0  0  0
M  END
> <minimizedAffinity>
-7.45285

> <CNNscore>
0.4340172708

> <CNNaffinity>
7.0406522751

> <CNN_VS>
3.0557646751

> <CNNaffinity_variance>
0.2529873848

$$$$
[H]c1nc(N([H])[H])c(-c2nn(-c3c([H])c(OC([H])([H])[H])c([H])c(OC([H])([H])[H])c3[H])c(=O)c([H])c2[H])nc1-c1c([H])nn(C2([H])C([H])([H])C([H])([H])N([H])C([H])([H])C2([H])[H])c1[H]


 38 42  0  0  0  0  0  0  0  0999 V2000
   -0.6109   21.9269  -24.2926 C   0  0  0  0  0  0  0  0  0  0  0  0
   -1.8269   22.3090  -24.7561 N   0  0  0  0  0  0  0  0  0  0  0  0
   -2.0105   22.5907  -26.0567 C   0  0  0  0  0  0  0  0  0  0  0  0
   -0.9184   22.4741  -26.8854 C   0  0  0  0  0  0  0  0  0  0  0  0
    0.2929   22.0950  -26.4321 N   0  0  0  0  0  0  0  0  0  0  0  0
    0.4720   21.8136  -25.1269 C   0  0  0  0  0  0  0  0  0  0  0  0
    1.7521   21.4071  -24.6159 N   0  0  0  0  0  0  0  0  0  0  0  0
    2.4223   22.1067  -24.2400 H   0  0  0  0  0  0  0  0  0  0  0  0
    2.0499   20.4061  -24.6046 H   0  0  0  0  0  0  0  0  0  0  0  0
    0.9238   21.0872  -21.0601 N   0  0  0  0  0  0  0  0  0  0  0  0
    0.7662   21.3627  -22.3563 N   0  0  0  0  0  0  0  0  0  0  0  0
   -0.4280   21.6245  -22.8771 C   0  0  0  0  0  0  0  0  0  0  0  0
   -1.5178   21.6069  -22.0465 C   0  0  0  0  0  0  0  0  0  0  0  0
   -1.4140   21.3290  -20.7018 C   0  0  0  0  0  0  0  0  0  0  0  0
   -0.1342   21.0649  -20.2275 C   0  0  0  0  0  0  0  0  0  0  0  0
    0.0210   20.8044  -19.0066 O   0  0  0  0  0  0  0  0  0  0  0  0
    3.8719   19.1649  -19.8946 C   0  0  0  0  0  0  0  0  0  0  0  0
    4.6546   20.1870  -19.3848 C   0  0  0  0  0  0  0  0  0  0  0  0
    4.2457   21.5043  -19.4091 C   0  0  0  0  0  0  0  0  0  0  0  0
    3.0237   21.7850  -19.9597 C   0  0  0  0  0  0  0  0  0  0  0  0
    2.1939   20.8049  -20.4865 C   0  0  0  0  0  0  0  0  0  0  0  0
    2.6475   19.5033  -20.4387 C   0  0  0  0  0  0  0  0  0  0  0  0
    3.5064   16.7934  -20.4280 C   0  0  0  0  0  0  0  0  0  0  0  0
    4.2586   17.8335  -19.8827 O   0  0  0  0  0  0  0  0  0  0  0  0
    5.0538   22.5056  -18.8898 O   0  0  0  0  0  0  0  0  0  0  0  0
    6.4414   22.5384  -19.0156 C   0  0  0  0  0  0  0  0  0  0  0  0
   -3.3201   23.0002  -26.5449 C   0  0  0  0  0  0  0  0  0  0  0  0
   -4.5330   22.9719  -25.8914 C   0  0  0  0  0  0  0  0  0  0  0  0
   -5.4443   23.4412  -26.7312 N   0  0  0  0  0  0  0  0  0  0  0  0
   -4.9266   23.7771  -27.8887 N   0  0  0  0  0  0  0  0  0  0  0  0
   -3.6046   23.5124  -27.7995 C   0  0  0  0  0  0  0  0  0  0  0  0
   -5.6116   24.3252  -29.0502 C   0  0  0  0  0  0  0  0  0  0  0  0
   -5.4104   23.3755  -30.1954 C   0  0  0  0  0  0  0  0  0  0  0  0
   -6.0488   23.8899  -31.4632 C   0  0  0  0  0  0  0  0  0  0  0  0
   -5.9933   25.3428  -31.5425 N   0  0  0  0  0  0  0  0  0  0  0  0
   -4.8394   25.8572  -30.8248 C   0  0  0  0  0  0  0  0  0  0  0  0
   -5.0868   25.7097  -29.3386 C   0  0  0  0  0  0  0  0  0  0  0  0
   -6.8354   25.7805  -31.0767 H   0  0  0  0  0  0  0  0  0  0  0  0
 23 24  1  0  0  0
 24 17  1  0  0  0
 17 18  2  0  0  0
 18 19  1  0  0  0
 19 25  1  0  0  0
 25 26  1  0  0  0
 19 20  2  0  0  0
 20 21  1  0  0  0
 21 22  2  0  0  0
 21 10  1  0  0  0
 10 11  1  0  0  0
 11 12  2  0  0  0
 12 13  1  0  0  0
 13 14  2  0  0  0
 14 15  1  0  0  0
 15 16  2  0  0  0
 12  1  1  0  0  0
  1  2  2  0  0  0
  2  3  1  0  0  0
  3  4  2  0  0  0
  4  5  1  0  0  0
  5  6  2  0  0  0
  6  7  1  0  0  0
  3 27  1  0  0  0
 27 28  1  0  0  0
 28 29  2  0  0  0
 29 30  1  0  0  0
 30 31  1  0  0  0
 30 32  1  0  0  0
 32 33  1  0  0  0
 33 34  1  0  0  0
 34 35  1  0  0  0
 35 36  1  0  0  0
 36 37  1  0  0  0
 22 17  1  0  0  0
 15 10  1  0  0  0
  6  1  1  0  0  0
 31 27  2  0  0  0
 37 32  1  0  0  0
  7  8  1  0  0  0
  7  9  1  0  0  0
 35 38  1  0  0  0
M  END
> <minimizedAffinity>
-8.69733

> <CNNscore>
0.4337018728

> <CNNaffinity>
7.2202782631

> <CNN_VS>
3.1314482689

> <CNNaffinity_variance>
0.3369783461

$$$$
[H]c1nc(N([H])[H])c(-c2nn(-c3c([H])c(OC([H])([H])[H])c([H])c(OC([H])([H])[H])c3[H])c(=O)c([H])c2[H])nc1-c1c([H])nn(C2([H])C([H])([H])C([H])([H])N([H])C([H])([H])C2([H])[H])c1[H]


 38 42  0  0  0  0  0  0  0  0999 V2000
   -0.6242   21.9342  -24.2492 C   0  0  0  0  0  0  0  0  0  0  0  0
   -1.8353   22.2952  -24.7418 N   0  0  0  0  0  0  0  0  0  0  0  0
   -1.9865   22.6021  -26.0408 C   0  0  0  0  0  0  0  0  0  0  0  0
   -0.8668   22.5333  -26.8375 C   0  0  0  0  0  0  0  0  0  0  0  0
    0.3398   22.1756  -26.3552 N   0  0  0  0  0  0  0  0  0  0  0  0
    0.4864   21.8686  -25.0517 C   0  0  0  0  0  0  0  0  0  0  0  0
    1.7606   21.4839  -24.5102 N   0  0  0  0  0  0  0  0  0  0  0  0
    2.4000   22.1919  -24.0980 H   0  0  0  0  0  0  0  0  0  0  0  0
    2.0846   20.4911  -24.5122 H   0  0  0  0  0  0  0  0  0  0  0  0
    0.8164   20.9520  -21.0136 N   0  0  0  0  0  0  0  0  0  0  0  0
    0.6911   21.2525  -22.3078 N   0  0  0  0  0  0  0  0  0  0  0  0
   -0.4767   21.6039  -22.8359 C   0  0  0  0  0  0  0  0  0  0  0  0
   -1.5728   21.6542  -22.0151 C   0  0  0  0  0  0  0  0  0  0  0  0
   -1.5018   21.3547  -20.6729 C   0  0  0  0  0  0  0  0  0  0  0  0
   -0.2484   20.9954  -20.1906 C   0  0  0  0  0  0  0  0  0  0  0  0
   -0.1237   20.7110  -18.9715 O   0  0  0  0  0  0  0  0  0  0  0  0
    4.1295   21.2426  -19.3754 C   0  0  0  0  0  0  0  0  0  0  0  0
    4.4871   19.9077  -19.2899 C   0  0  0  0  0  0  0  0  0  0  0  0
    3.6696   18.8992  -19.7566 C   0  0  0  0  0  0  0  0  0  0  0  0
    2.4721   19.2543  -20.3180 C   0  0  0  0  0  0  0  0  0  0  0  0
    2.0578   20.5742  -20.4323 C   0  0  0  0  0  0  0  0  0  0  0  0
    2.9103   21.5457  -19.9509 C   0  0  0  0  0  0  0  0  0  0  0  0
    6.2882   22.4069  -19.2110 C   0  0  0  0  0  0  0  0  0  0  0  0
    4.9318   22.2752  -18.9145 O   0  0  0  0  0  0  0  0  0  0  0  0
    4.0572   17.5708  -19.6559 O   0  0  0  0  0  0  0  0  0  0  0  0
    3.3517   16.5034  -20.2085 C   0  0  0  0  0  0  0  0  0  0  0  0
   -3.2910   22.9886  -26.5603 C   0  0  0  0  0  0  0  0  0  0  0  0
   -4.5293   22.8569  -25.9700 C   0  0  0  0  0  0  0  0  0  0  0  0
   -5.4235   23.3472  -26.8161 N   0  0  0  0  0  0  0  0  0  0  0  0
   -4.8711   23.7924  -27.9195 N   0  0  0  0  0  0  0  0  0  0  0  0
   -3.5433   23.5810  -27.7862 C   0  0  0  0  0  0  0  0  0  0  0  0
   -5.5289   24.3957  -29.0692 C   0  0  0  0  0  0  0  0  0  0  0  0
   -5.4552   23.4198  -30.2077 C   0  0  0  0  0  0  0  0  0  0  0  0
   -6.0729   23.9839  -31.4646 C   0  0  0  0  0  0  0  0  0  0  0  0
   -5.8740   25.4230  -31.5629 N   0  0  0  0  0  0  0  0  0  0  0  0
   -4.6553   25.8254  -30.8817 C   0  0  0  0  0  0  0  0  0  0  0  0
   -4.8759   25.7175  -29.3880 C   0  0  0  0  0  0  0  0  0  0  0  0
   -6.6550   25.9476  -31.0807 H   0  0  0  0  0  0  0  0  0  0  0  0
 23 24  1  0  0  0
 24 17  1  0  0  0
 17 18  2  0  0  0
 18 19  1  0  0  0
 19 25  1  0  0  0
 25 26  1  0  0  0
 19 20  2  0  0  0
 20 21  1  0  0  0
 21 22  2  0  0  0
 21 10  1  0  0  0
 10 11  1  0  0  0
 11 12  2  0  0  0
 12 13  1  0  0  0
 13 14  2  0  0  0
 14 15  1  0  0  0
 15 16  2  0  0  0
 12  1  1  0  0  0
  1  2  2  0  0  0
  2  3  1  0  0  0
  3  4  2  0  0  0
  4  5  1  0  0  0
  5  6  2  0  0  0
  6  7  1  0  0  0
  3 27  1  0  0  0
 27 28  1  0  0  0
 28 29  2  0  0  0
 29 30  1  0  0  0
 30 31  1  0  0  0
 30 32  1  0  0  0
 32 33  1  0  0  0
 33 34  1  0  0  0
 34 35  1  0  0  0
 35 36  1  0  0  0
 36 37  1  0  0  0
 22 17  1  0  0  0
 15 10  1  0  0  0
  6  1  1  0  0  0
 31 27  2  0  0  0
 37 32  1  0  0  0
  7  8  1  0  0  0
  7  9  1  0  0  0
 35 38  1  0  0  0
M  END
> <minimizedAffinity>
-8.70901

> <CNNscore>
0.4130999744

> <CNNaffinity>
7.2017502785

> <CNN_VS>
2.9750428200

> <CNNaffinity_variance>
0.3329039216

$$$$
[H]c1nc(N([H])[H])c(-c2nn(-c3c([H])c(OC([H])([H])[H])c([H])c(OC([H])([H])[H])c3[H])c(=O)c([H])c2[H])nc1-c1c([H])nn(C2([H])C([H])([H])C([H])([H])N([H])C([H])([H])C2([H])[H])c1[H]


 38 42  0  0  0  0  0  0  0  0999 V2000
   -0.2101   21.7204  -23.7500 C   0  0  0  0  0  0  0  0  0  0  0  0
   -1.4631   22.1982  -23.9530 N   0  0  0  0  0  0  0  0  0  0  0  0
   -1.8478   22.6281  -25.1661 C   0  0  0  0  0  0  0  0  0  0  0  0
   -0.9203   22.5609  -26.1802 C   0  0  0  0  0  0  0  0  0  0  0  0
    0.3265   22.0874  -25.9860 N   0  0  0  0  0  0  0  0  0  0  0  0
    0.7076   21.6574  -24.7675 C   0  0  0  0  0  0  0  0  0  0  0  0
    2.0303   21.1477  -24.5317 N   0  0  0  0  0  0  0  0  0  0  0  0
    2.7935   21.7751  -24.2094 H   0  0  0  0  0  0  0  0  0  0  0  0
    2.2679   20.1407  -24.6744 H   0  0  0  0  0  0  0  0  0  0  0  0
    1.8122   20.8806  -20.7979 N   0  0  0  0  0  0  0  0  0  0  0  0
    1.4536   21.3066  -22.0107 N   0  0  0  0  0  0  0  0  0  0  0  0
    0.1923   21.2573  -22.4263 C   0  0  0  0  0  0  0  0  0  0  0  0
   -0.7541   20.7522  -21.5737 C   0  0  0  0  0  0  0  0  0  0  0  0
   -0.4411   20.2986  -20.3117 C   0  0  0  0  0  0  0  0  0  0  0  0
    0.8975   20.3809  -19.9454 C   0  0  0  0  0  0  0  0  0  0  0  0
    1.2420   19.9810  -18.8035 O   0  0  0  0  0  0  0  0  0  0  0  0
    4.8924   22.1263  -19.1531 C   0  0  0  0  0  0  0  0  0  0  0  0
    5.7590   21.0781  -19.4126 C   0  0  0  0  0  0  0  0  0  0  0  0
    5.3653   19.9598  -20.1179 C   0  0  0  0  0  0  0  0  0  0  0  0
    4.0721   19.9079  -20.5653 C   0  0  0  0  0  0  0  0  0  0  0  0
    3.1566   20.9261  -20.3373 C   0  0  0  0  0  0  0  0  0  0  0  0
    3.5986   22.0229  -19.6273 C   0  0  0  0  0  0  0  0  0  0  0  0
    4.9849   23.4693  -17.0963 C   0  0  0  0  0  0  0  0  0  0  0  0
    5.2621   23.2610  -18.4472 O   0  0  0  0  0  0  0  0  0  0  0  0
    6.2583   18.9262  -20.3612 O   0  0  0  0  0  0  0  0  0  0  0  0
    5.8843   17.6029  -20.5875 C   0  0  0  0  0  0  0  0  0  0  0  0
   -3.1955   23.1395  -25.3741 C   0  0  0  0  0  0  0  0  0  0  0  0
   -4.0840   22.8462  -26.3858 C   0  0  0  0  0  0  0  0  0  0  0  0
   -5.1844   23.5491  -26.1601 N   0  0  0  0  0  0  0  0  0  0  0  0
   -5.0910   24.2838  -25.0774 N   0  0  0  0  0  0  0  0  0  0  0  0
   -3.8619   24.0475  -24.5684 C   0  0  0  0  0  0  0  0  0  0  0  0
   -6.0906   25.1798  -24.5149 C   0  0  0  0  0  0  0  0  0  0  0  0
   -6.0984   24.9863  -23.0261 C   0  0  0  0  0  0  0  0  0  0  0  0
   -7.1459   25.8450  -22.3592 C   0  0  0  0  0  0  0  0  0  0  0  0
   -8.3216   26.0116  -23.2019 N   0  0  0  0  0  0  0  0  0  0  0  0
   -8.4991   24.8647  -24.0763 C   0  0  0  0  0  0  0  0  0  0  0  0
   -7.4310   24.9018  -25.1484 C   0  0  0  0  0  0  0  0  0  0  0  0
   -8.2128   26.8440  -23.8445 H   0  0  0  0  0  0  0  0  0  0  0  0
 23 24  1  0  0  0
 24 17  1  0  0  0
 17 18  2  0  0  0
 18 19  1  0  0  0
 19 25  1  0  0  0
 25 26  1  0  0  0
 19 20  2  0  0  0
 20 21  1  0  0  0
 21 22  2  0  0  0
 21 10  1  0  0  0
 10 11  1  0  0  0
 11 12  2  0  0  0
 12 13  1  0  0  0
 13 14  2  0  0  0
 14 15  1  0  0  0
 15 16  2  0  0  0
 12  1  1  0  0  0
  1  2  2  0  0  0
  2  3  1  0  0  0
  3  4  2  0  0  0
  4  5  1  0  0  0
  5  6  2  0  0  0
  6  7  1  0  0  0
  3 27  1  0  0  0
 27 28  1  0  0  0
 28 29  2  0  0  0
 29 30  1  0  0  0
 30 31  1  0  0  0
 30 32  1  0  0  0
 32 33  1  0  0  0
 33 34  1  0  0  0
 34 35  1  0  0  0
 35 36  1  0  0  0
 36 37  1  0  0  0
 22 17  1  0  0  0
 15 10  1  0  0  0
  6  1  1  0  0  0
 31 27  2  0  0  0
 37 32  1  0  0  0
  7  8  1  0  0  0
  7  9  1  0  0  0
 35 38  1  0  0  0
M  END
> <minimizedAffinity>
-7.45709

> <CNNscore>
0.4055590332

> <CNNaffinity>
6.9120607376

> <CNN_VS>
2.8032486439

> <CNNaffinity_variance>
0.4137437344

$$$$
[H]c1nc(N([H])[H])c(-c2nn(-c3c([H])c(OC([H])([H])[H])c([H])c(OC([H])([H])[H])c3[H])c(=O)c([H])c2[H])nc1-c1c([H])nn(C2([H])C([H])([H])C([H])([H])N([H])C([H])([H])C2([H])[H])c1[H]


 38 42  0  0  0  0  0  0  0  0999 V2000
   -0.1199   21.6619  -23.6694 C   0  0  0  0  0  0  0  0  0  0  0  0
   -1.3892   21.9630  -24.0404 N   0  0  0  0  0  0  0  0  0  0  0  0
   -1.6790   22.2722  -25.3151 C   0  0  0  0  0  0  0  0  0  0  0  0
   -0.6381   22.2685  -26.2150 C   0  0  0  0  0  0  0  0  0  0  0  0
    0.6256   21.9704  -25.8538 N   0  0  0  0  0  0  0  0  0  0  0  0
    0.9112   21.6610  -24.5741 C   0  0  0  0  0  0  0  0  0  0  0  0
    2.2492   21.3391  -24.1608 N   0  0  0  0  0  0  0  0  0  0  0  0
    2.8878   22.0761  -23.8017 H   0  0  0  0  0  0  0  0  0  0  0  0
    2.6221   20.3645  -24.2063 H   0  0  0  0  0  0  0  0  0  0  0  0
    1.6133   21.3002  -20.4484 N   0  0  0  0  0  0  0  0  0  0  0  0
    1.3496   21.6093  -21.7196 N   0  0  0  0  0  0  0  0  0  0  0  0
    0.1783   21.3282  -22.2808 C   0  0  0  0  0  0  0  0  0  0  0  0
   -0.7744   20.7034  -21.5194 C   0  0  0  0  0  0  0  0  0  0  0  0
   -0.5571   20.3614  -20.2033 C   0  0  0  0  0  0  0  0  0  0  0  0
    0.6908   20.6862  -19.6836 C   0  0  0  0  0  0  0  0  0  0  0  0
    0.9455   20.3975  -18.4860 O   0  0  0  0  0  0  0  0  0  0  0  0
    4.1296   22.9607  -18.2906 C   0  0  0  0  0  0  0  0  0  0  0  0
    5.2563   22.2168  -18.5979 C   0  0  0  0  0  0  0  0  0  0  0  0
    5.2218   21.1742  -19.5006 C   0  0  0  0  0  0  0  0  0  0  0  0
    4.0242   20.8849  -20.0986 C   0  0  0  0  0  0  0  0  0  0  0  0
    2.8608   21.5936  -19.8324 C   0  0  0  0  0  0  0  0  0  0  0  0
    2.9470   22.6267  -18.9226 C   0  0  0  0  0  0  0  0  0  0  0  0
    3.4954   23.9883  -16.1496 C   0  0  0  0  0  0  0  0  0  0  0  0
    4.1367   24.0129  -17.3878 O   0  0  0  0  0  0  0  0  0  0  0  0
    6.3688   20.4480  -19.7868 O   0  0  0  0  0  0  0  0  0  0  0  0
    6.9752   19.5578  -18.9024 C   0  0  0  0  0  0  0  0  0  0  0  0
   -3.0451   22.5941  -25.7037 C   0  0  0  0  0  0  0  0  0  0  0  0
   -4.2008   22.4947  -24.9597 C   0  0  0  0  0  0  0  0  0  0  0  0
   -5.2011   22.8984  -25.7295 N   0  0  0  0  0  0  0  0  0  0  0  0
   -4.7948   23.2567  -26.9242 N   0  0  0  0  0  0  0  0  0  0  0  0
   -3.4558   23.0769  -26.9349 C   0  0  0  0  0  0  0  0  0  0  0  0
   -5.5992   23.7509  -28.0321 C   0  0  0  0  0  0  0  0  0  0  0  0
   -5.0578   23.1528  -29.2983 C   0  0  0  0  0  0  0  0  0  0  0  0
   -5.8045   23.6510  -30.5122 C   0  0  0  0  0  0  0  0  0  0  0  0
   -6.2491   25.0272  -30.3432 N   0  0  0  0  0  0  0  0  0  0  0  0
   -5.3588   25.7540  -29.4541 C   0  0  0  0  0  0  0  0  0  0  0  0
   -5.5750   25.2591  -28.0400 C   0  0  0  0  0  0  0  0  0  0  0  0
   -7.2009   25.0647  -29.8844 H   0  0  0  0  0  0  0  0  0  0  0  0
 23 24  1  0  0  0
 24 17  1  0  0  0
 17 18  2  0  0  0
 18 19  1  0  0  0
 19 25  1  0  0  0
 25 26  1  0  0  0
 19 20  2  0  0  0
 20 21  1  0  0  0
 21 22  2  0  0  0
 21 10  1  0  0  0
 10 11  1  0  0  0
 11 12  2  0  0  0
 12 13  1  0  0  0
 13 14  2  0  0  0
 14 15  1  0  0  0
 15 16  2  0  0  0
 12  1  1  0  0  0
  1  2  2  0  0  0
  2  3  1  0  0  0
  3  4  2  0  0  0
  4  5  1  0  0  0
  5  6  2  0  0  0
  6  7  1  0  0  0
  3 27  1  0  0  0
 27 28  1  0  0  0
 28 29  2  0  0  0
 29 30  1  0  0  0
 30 31  1  0  0  0
 30 32  1  0  0  0
 32 33  1  0  0  0
 33 34  1  0  0  0
 34 35  1  0  0  0
 35 36  1  0  0  0
 36 37  1  0  0  0
 22 17  1  0  0  0
 15 10  1  0  0  0
  6  1  1  0  0  0
 31 27  2  0  0  0
 37 32  1  0  0  0
  7  8  1  0  0  0
  7  9  1  0  0  0
 35 38  1  0  0  0
M  END
> <minimizedAffinity>
-8.50303

> <CNNscore>
0.3569555283

> <CNNaffinity>
6.9817719460

> <CNN_VS>
2.4921820164

> <CNNaffinity_variance>
0.3626861274

$$$$
[H]c1nc(N([H])[H])c2c(-c3sc4c(OC([H])([H])[H])c([H])c(C([H])([H])[H])c([H])c4c3[H])c(C([H])([H])OC([H])([H])C([H])([H])[H])c(C([H])([H])N3C([H])([H])C([H])([H])N([H])C([H])([H])C3([H])[H])n2n1


 36 40  0  0  0  0  0  0  0  0999 V2000
   -3.1506   22.3319  -25.1255 C   0  0  0  0  0  0  0  0  0  0  0  0
   -3.5709   22.9834  -26.2994 C   0  0  0  0  0  0  0  0  0  0  0  0
   -2.4739   23.0834  -27.0738 N   0  0  0  0  0  0  0  0  0  0  0  0
   -2.3035   23.5435  -28.3271 N   0  0  0  0  0  0  0  0  0  0  0  0
   -1.1311   23.5197  -28.9837 C   0  0  0  0  0  0  0  0  0  0  0  0
   -0.0810   23.0242  -28.3729 N   0  0  0  0  0  0  0  0  0  0  0  0
   -0.2219   22.5477  -27.1245 C   0  0  0  0  0  0  0  0  0  0  0  0
    0.9805   22.1993  -26.4517 N   0  0  0  0  0  0  0  0  0  0  0  0
   -1.4055   22.5407  -26.4223 C   0  0  0  0  0  0  0  0  0  0  0  0
   -1.8498   22.0759  -25.1882 C   0  0  0  0  0  0  0  0  0  0  0  0
    1.3871   21.2700  -26.5823 H   0  0  0  0  0  0  0  0  0  0  0  0
    1.4320   22.9099  -25.7940 H   0  0  0  0  0  0  0  0  0  0  0  0
   -0.8641   21.8123  -24.1137 C   0  0  0  0  0  0  0  0  0  0  0  0
    0.4081   21.3857  -24.0276 C   0  0  0  0  0  0  0  0  0  0  0  0
    0.9387   21.3045  -22.7882 C   0  0  0  0  0  0  0  0  0  0  0  0
    2.2400   20.8841  -22.4694 C   0  0  0  0  0  0  0  0  0  0  0  0
    2.6658   20.8371  -21.1403 C   0  0  0  0  0  0  0  0  0  0  0  0
    4.0217   20.3704  -20.7949 C   0  0  0  0  0  0  0  0  0  0  0  0
    1.8539   21.2033  -20.1135 C   0  0  0  0  0  0  0  0  0  0  0  0
    0.5691   21.6301  -20.3905 C   0  0  0  0  0  0  0  0  0  0  0  0
    0.1466   21.6643  -21.7288 C   0  0  0  0  0  0  0  0  0  0  0  0
   -1.3214   22.0928  -22.4435 S   0  0  0  0  0  0  0  0  0  0  0  0
   -0.3343   22.0393  -19.4412 O   0  0  0  0  0  0  0  0  0  0  0  0
   -0.5601   23.3302  -18.9838 C   0  0  0  0  0  0  0  0  0  0  0  0
   -4.1362   22.0679  -24.0242 C   0  0  0  0  0  0  0  0  0  0  0  0
   -5.1360   21.2733  -24.4189 O   0  0  0  0  0  0  0  0  0  0  0  0
   -6.8461   21.7425  -22.7406 C   0  0  0  0  0  0  0  0  0  0  0  0
   -6.3571   21.1221  -24.0324 C   0  0  0  0  0  0  0  0  0  0  0  0
   -4.9642   23.4380  -26.5344 C   0  0  0  0  0  0  0  0  0  0  0  0
   -5.2238   24.7236  -25.9347 N   0  0  0  0  0  0  0  0  0  0  0  0
   -4.1907   25.5585  -25.5482 C   0  0  0  0  0  0  0  0  0  0  0  0
   -4.7626   27.0022  -25.3861 C   0  0  0  0  0  0  0  0  0  0  0  0
   -5.9329   27.0414  -24.5805 N   0  0  0  0  0  0  0  0  0  0  0  0
   -6.3201   25.7784  -24.0446 C   0  0  0  0  0  0  0  0  0  0  0  0
   -6.3916   24.7076  -25.1097 C   0  0  0  0  0  0  0  0  0  0  0  0
   -5.7674   27.7005  -23.8046 H   0  0  0  0  0  0  0  0  0  0  0  0
 27 28  1  0  0  0
 28 26  1  0  0  0
 26 25  1  0  0  0
 25  1  1  0  0  0
  1  2  2  0  0  0
  2 29  1  0  0  0
 29 30  1  0  0  0
 30 31  1  0  0  0
 31 32  1  0  0  0
 32 33  1  0  0  0
 33 34  1  0  0  0
 34 35  1  0  0  0
  2  3  1  0  0  0
  3  4  1  0  0  0
  4  5  2  0  0  0
  5  6  1  0  0  0
  6  7  2  0  0  0
  7  8  1  0  0  0
  7  9  1  0  0  0
  9 10  2  0  0  0
 10 13  1  0  0  0
 13 14  2  0  0  0
 14 15  1  0  0  0
 15 16  2  0  0  0
 16 17  1  0  0  0
 17 18  1  0  0  0
 17 19  2  0  0  0
 19 20  1  0  0  0
 20 23  1  0  0  0
 23 24  1  0  0  0
 20 21  2  0  0  0
 21 22  1  0  0  0
 10  1  1  0  0  0
 22 13  1  0  0  0
 35 30  1  0  0  0
  9  3  1  0  0  0
 21 15  1  0  0  0
 33 36  1  0  0  0
  8 11  1  0  0  0
  8 12  1  0  0  0
M  END
> <minimizedAffinity>
-8.27664

> <CNNscore>
0.9404761195

> <CNNaffinity>
7.4212722778

> <CNN_VS>
6.9795293808

> <CNNaffinity_variance>
0.0995090157

$$$$
[H]c1nc(N([H])[H])c2c(-c3sc4c(OC([H])([H])[H])c([H])c(C([H])([H])[H])c([H])c4c3[H])c(C([H])([H])OC([H])([H])C([H])([H])[H])c(C([H])([H])N3C([H])([H])C([H])([H])N([H])C([H])([H])C3([H])[H])n2n1


 36 40  0  0  0  0  0  0  0  0999 V2000
   -3.3778   22.1832  -25.6423 C   0  0  0  0  0  0  0  0  0  0  0  0
   -3.5541   22.7642  -26.9114 C   0  0  0  0  0  0  0  0  0  0  0  0
   -2.3149   22.9333  -27.4103 N   0  0  0  0  0  0  0  0  0  0  0  0
   -1.8859   23.3705  -28.6088 N   0  0  0  0  0  0  0  0  0  0  0  0
   -0.5925   23.4257  -28.9700 C   0  0  0  0  0  0  0  0  0  0  0  0
    0.3159   23.0366  -28.1071 N   0  0  0  0  0  0  0  0  0  0  0  0
   -0.0821   22.5853  -26.9057 C   0  0  0  0  0  0  0  0  0  0  0  0
    0.9483   22.3571  -25.9539 N   0  0  0  0  0  0  0  0  0  0  0  0
   -1.3948   22.4998  -26.5015 C   0  0  0  0  0  0  0  0  0  0  0  0
   -2.0841   22.0345  -25.3857 C   0  0  0  0  0  0  0  0  0  0  0  0
    1.4419   21.4615  -25.9416 H   0  0  0  0  0  0  0  0  0  0  0  0
    1.1766   23.1210  -25.2427 H   0  0  0  0  0  0  0  0  0  0  0  0
   -1.3654   21.8841  -24.0987 C   0  0  0  0  0  0  0  0  0  0  0  0
   -0.2630   21.2556  -23.6542 C   0  0  0  0  0  0  0  0  0  0  0  0
    0.0391   21.4111  -22.3471 C   0  0  0  0  0  0  0  0  0  0  0  0
    1.1359   20.8458  -21.6767 C   0  0  0  0  0  0  0  0  0  0  0  0
    1.3324   21.0785  -20.3138 C   0  0  0  0  0  0  0  0  0  0  0  0
    2.4662   20.4661  -19.5962 C   0  0  0  0  0  0  0  0  0  0  0  0
    0.4889   21.8617  -19.5908 C   0  0  0  0  0  0  0  0  0  0  0  0
   -0.5968   22.4410  -20.2195 C   0  0  0  0  0  0  0  0  0  0  0  0
   -0.7919   22.1931  -21.5874 C   0  0  0  0  0  0  0  0  0  0  0  0
   -1.9869   22.6913  -22.6706 S   0  0  0  0  0  0  0  0  0  0  0  0
   -1.5059   23.2617  -19.5991 O   0  0  0  0  0  0  0  0  0  0  0  0
   -2.3128   22.9654  -18.5093 C   0  0  0  0  0  0  0  0  0  0  0  0
   -4.5747   21.8693  -24.7920 C   0  0  0  0  0  0  0  0  0  0  0  0
   -5.1314   22.9693  -24.2754 O   0  0  0  0  0  0  0  0  0  0  0  0
   -6.1225   22.0981  -22.2211 C   0  0  0  0  0  0  0  0  0  0  0  0
   -5.7592   23.2157  -23.1760 C   0  0  0  0  0  0  0  0  0  0  0  0
   -4.8812   23.0948  -27.4880 C   0  0  0  0  0  0  0  0  0  0  0  0
   -4.7724   23.9472  -28.6461 N   0  0  0  0  0  0  0  0  0  0  0  0
   -4.8770   25.3225  -28.5390 C   0  0  0  0  0  0  0  0  0  0  0  0
   -4.2661   25.9615  -29.8260 C   0  0  0  0  0  0  0  0  0  0  0  0
   -4.7791   25.3866  -31.0204 N   0  0  0  0  0  0  0  0  0  0  0  0
   -5.7745   24.3877  -30.8115 C   0  0  0  0  0  0  0  0  0  0  0  0
   -5.3281   23.3410  -29.8158 C   0  0  0  0  0  0  0  0  0  0  0  0
   -5.1769   26.1438  -31.5968 H   0  0  0  0  0  0  0  0  0  0  0  0
 27 28  1  0  0  0
 28 26  1  0  0  0
 26 25  1  0  0  0
 25  1  1  0  0  0
  1  2  2  0  0  0
  2 29  1  0  0  0
 29 30  1  0  0  0
 30 31  1  0  0  0
 31 32  1  0  0  0
 32 33  1  0  0  0
 33 34  1  0  0  0
 34 35  1  0  0  0
  2  3  1  0  0  0
  3  4  1  0  0  0
  4  5  2  0  0  0
  5  6  1  0  0  0
  6  7  2  0  0  0
  7  8  1  0  0  0
  7  9  1  0  0  0
  9 10  2  0  0  0
 10 13  1  0  0  0
 13 14  2  0  0  0
 14 15  1  0  0  0
 15 16  2  0  0  0
 16 17  1  0  0  0
 17 18  1  0  0  0
 17 19  2  0  0  0
 19 20  1  0  0  0
 20 23  1  0  0  0
 23 24  1  0  0  0
 20 21  2  0  0  0
 21 22  1  0  0  0
 10  1  1  0  0  0
 22 13  1  0  0  0
 35 30  1  0  0  0
  9  3  1  0  0  0
 21 15  1  0  0  0
 33 36  1  0  0  0
  8 11  1  0  0  0
  8 12  1  0  0  0
M  END
> <minimizedAffinity>
-8.65270

> <CNNscore>
0.8840285540

> <CNNaffinity>
7.5452299118

> <CNN_VS>
6.6701989174

> <CNNaffinity_variance>
0.1230089068

$$$$
[H]c1nc(N([H])[H])c2c(-c3sc4c(OC([H])([H])[H])c([H])c(C([H])([H])[H])c([H])c4c3[H])c(C([H])([H])OC([H])([H])C([H])([H])[H])c(C([H])([H])N3C([H])([H])C([H])([H])N([H])C([H])([H])C3([H])[H])n2n1


 36 40  0  0  0  0  0  0  0  0999 V2000
   -3.0756   21.7890  -24.0189 C   0  0  0  0  0  0  0  0  0  0  0  0
   -3.2352   22.4142  -25.2691 C   0  0  0  0  0  0  0  0  0  0  0  0
   -1.9969   22.5109  -25.7891 N   0  0  0  0  0  0  0  0  0  0  0  0
   -1.5614   22.9492  -26.9848 N   0  0  0  0  0  0  0  0  0  0  0  0
   -0.2743   22.9251  -27.3711 C   0  0  0  0  0  0  0  0  0  0  0  0
    0.6212   22.4519  -26.5372 N   0  0  0  0  0  0  0  0  0  0  0  0
    0.2157   21.9974  -25.3395 C   0  0  0  0  0  0  0  0  0  0  0  0
    1.2456   21.6740  -24.4152 N   0  0  0  0  0  0  0  0  0  0  0  0
   -1.0920   21.9914  -24.9106 C   0  0  0  0  0  0  0  0  0  0  0  0
   -1.7907   21.5453  -23.7929 C   0  0  0  0  0  0  0  0  0  0  0  0
    1.6762   20.7466  -24.4355 H   0  0  0  0  0  0  0  0  0  0  0  0
    1.5394   22.4013  -23.6899 H   0  0  0  0  0  0  0  0  0  0  0  0
   -1.0600   21.3119  -22.5251 C   0  0  0  0  0  0  0  0  0  0  0  0
   -0.5825   20.2555  -21.8440 C   0  0  0  0  0  0  0  0  0  0  0  0
    0.0598   20.5198  -20.6857 C   0  0  0  0  0  0  0  0  0  0  0  0
    0.6313   19.5735  -19.8199 C   0  0  0  0  0  0  0  0  0  0  0  0
    1.2636   19.9783  -18.6424 C   0  0  0  0  0  0  0  0  0  0  0  0
    1.8420   18.9889  -17.7140 C   0  0  0  0  0  0  0  0  0  0  0  0
    1.3623   21.2888  -18.2952 C   0  0  0  0  0  0  0  0  0  0  0  0
    0.8183   22.2485  -19.1274 C   0  0  0  0  0  0  0  0  0  0  0  0
    0.1758   21.8313  -20.3038 C   0  0  0  0  0  0  0  0  0  0  0  0
   -0.6123   22.6845  -21.5287 S   0  0  0  0  0  0  0  0  0  0  0  0
    0.8698   23.5999  -18.8912 O   0  0  0  0  0  0  0  0  0  0  0  0
    1.9370   24.3358  -18.3953 C   0  0  0  0  0  0  0  0  0  0  0  0
   -4.2751   21.5357  -23.1522 C   0  0  0  0  0  0  0  0  0  0  0  0
   -4.5115   22.5441  -22.3073 O   0  0  0  0  0  0  0  0  0  0  0  0
   -4.0395   21.5939  -20.1082 C   0  0  0  0  0  0  0  0  0  0  0  0
   -4.2235   22.7511  -21.0672 C   0  0  0  0  0  0  0  0  0  0  0  0
   -4.5469   22.8501  -25.8097 C   0  0  0  0  0  0  0  0  0  0  0  0
   -4.9387   24.1432  -25.3057 N   0  0  0  0  0  0  0  0  0  0  0  0
   -6.2102   24.3660  -24.8082 C   0  0  0  0  0  0  0  0  0  0  0  0
   -6.1757   25.6633  -23.9401 C   0  0  0  0  0  0  0  0  0  0  0  0
   -5.5670   26.7574  -24.6128 N   0  0  0  0  0  0  0  0  0  0  0  0
   -5.1586   26.4725  -25.9486 C   0  0  0  0  0  0  0  0  0  0  0  0
   -4.3268   25.2126  -26.0313 C   0  0  0  0  0  0  0  0  0  0  0  0
   -6.2377   27.5410  -24.6251 H   0  0  0  0  0  0  0  0  0  0  0  0
 27 28  1  0  0  0
 28 26  1  0  0  0
 26 25  1  0  0  0
 25  1  1  0  0  0
  1  2  2  0  0  0
  2 29  1  0  0  0
 29 30  1  0  0  0
 30 31  1  0  0  0
 31 32  1  0  0  0
 32 33  1  0  0  0
 33 34  1  0  0  0
 34 35  1  0  0  0
  2  3  1  0  0  0
  3  4  1  0  0  0
  4  5  2  0  0  0
  5  6  1  0  0  0
  6  7  2  0  0  0
  7  8  1  0  0  0
  7  9  1  0  0  0
  9 10  2  0  0  0
 10 13  1  0  0  0
 13 14  2  0  0  0
 14 15  1  0  0  0
 15 16  2  0  0  0
 16 17  1  0  0  0
 17 18  1  0  0  0
 17 19  2  0  0  0
 19 20  1  0  0  0
 20 23  1  0  0  0
 23 24  1  0  0  0
 20 21  2  0  0  0
 21 22  1  0  0  0
 10  1  1  0  0  0
 22 13  1  0  0  0
 35 30  1  0  0  0
  9  3  1  0  0  0
 21 15  1  0  0  0
 33 36  1  0  0  0
  8 11  1  0  0  0
  8 12  1  0  0  0
M  END
> <minimizedAffinity>
-7.06314

> <CNNscore>
0.6104551554

> <CNNaffinity>
7.0644164085

> <CNN_VS>
4.3125095367

> <CNNaffinity_variance>
0.0608837903

$$$$
[H]c1nc(N([H])[H])c2c(-c3sc4c(OC([H])([H])[H])c([H])c(C([H])([H])[H])c([H])c4c3[H])c(C([H])([H])OC([H])([H])C([H])([H])[H])c(C([H])([H])N3C([H])([H])C([H])([H])N([H])C([H])([H])C3([H])[H])n2n1


 36 40  0  0  0  0  0  0  0  0999 V2000
   -3.0210   21.7511  -23.7947 C   0  0  0  0  0  0  0  0  0  0  0  0
   -3.2299   22.2190  -25.1049 C   0  0  0  0  0  0  0  0  0  0  0  0
   -2.0048   22.3276  -25.6531 N   0  0  0  0  0  0  0  0  0  0  0  0
   -1.6081   22.6510  -26.8979 N   0  0  0  0  0  0  0  0  0  0  0  0
   -0.3258   22.6579  -27.3003 C   0  0  0  0  0  0  0  0  0  0  0  0
    0.6046   22.3360  -26.4330 N   0  0  0  0  0  0  0  0  0  0  0  0
    0.2388   21.9984  -25.1850 C   0  0  0  0  0  0  0  0  0  0  0  0
    1.2953   21.8432  -24.2471 N   0  0  0  0  0  0  0  0  0  0  0  0
   -1.0619   21.9654  -24.7365 C   0  0  0  0  0  0  0  0  0  0  0  0
   -1.7216   21.6100  -23.5639 C   0  0  0  0  0  0  0  0  0  0  0  0
    1.7803   20.9462  -24.1693 H   0  0  0  0  0  0  0  0  0  0  0  0
    1.5523   22.6645  -23.6140 H   0  0  0  0  0  0  0  0  0  0  0  0
   -0.9657   21.5658  -22.2901 C   0  0  0  0  0  0  0  0  0  0  0  0
   -0.6423   22.4241  -21.3069 C   0  0  0  0  0  0  0  0  0  0  0  0
    0.0819   21.9270  -20.2810 C   0  0  0  0  0  0  0  0  0  0  0  0
    0.5280   22.6422  -19.1579 C   0  0  0  0  0  0  0  0  0  0  0  0
    1.2802   22.0099  -18.1657 C   0  0  0  0  0  0  0  0  0  0  0  0
    1.7761   22.7603  -16.9967 C   0  0  0  0  0  0  0  0  0  0  0  0
    1.5977   20.6902  -18.2378 C   0  0  0  0  0  0  0  0  0  0  0  0
    1.1687   19.9530  -19.3249 C   0  0  0  0  0  0  0  0  0  0  0  0
    0.4218   20.5996  -20.3223 C   0  0  0  0  0  0  0  0  0  0  0  0
   -0.2410   20.0534  -21.7756 S   0  0  0  0  0  0  0  0  0  0  0  0
    1.4130   18.6133  -19.4994 O   0  0  0  0  0  0  0  0  0  0  0  0
    2.5572   18.0180  -20.0121 C   0  0  0  0  0  0  0  0  0  0  0  0
   -4.1945   21.5291  -22.8850 C   0  0  0  0  0  0  0  0  0  0  0  0
   -4.3812   22.5487  -22.0411 O   0  0  0  0  0  0  0  0  0  0  0  0
   -3.9342   21.4958  -19.8841 C   0  0  0  0  0  0  0  0  0  0  0  0
   -4.3848   22.6493  -20.7553 C   0  0  0  0  0  0  0  0  0  0  0  0
   -4.5706   22.5132  -25.6697 C   0  0  0  0  0  0  0  0  0  0  0  0
   -4.7222   23.9065  -26.0097 N   0  0  0  0  0  0  0  0  0  0  0  0
   -4.7868   24.8825  -25.0314 C   0  0  0  0  0  0  0  0  0  0  0  0
   -4.4812   26.2621  -25.6955 C   0  0  0  0  0  0  0  0  0  0  0  0
   -5.2593   26.4937  -26.8622 N   0  0  0  0  0  0  0  0  0  0  0  0
   -6.1895   25.4564  -27.1637 C   0  0  0  0  0  0  0  0  0  0  0  0
   -5.5366   24.0926  -27.1701 C   0  0  0  0  0  0  0  0  0  0  0  0
   -5.7716   27.3801  -26.7364 H   0  0  0  0  0  0  0  0  0  0  0  0
 27 28  1  0  0  0
 28 26  1  0  0  0
 26 25  1  0  0  0
 25  1  1  0  0  0
  1  2  2  0  0  0
  2 29  1  0  0  0
 29 30  1  0  0  0
 30 31  1  0  0  0
 31 32  1  0  0  0
 32 33  1  0  0  0
 33 34  1  0  0  0
 34 35  1  0  0  0
  2  3  1  0  0  0
  3  4  1  0  0  0
  4  5  2  0  0  0
  5  6  1  0  0  0
  6  7  2  0  0  0
  7  8  1  0  0  0
  7  9  1  0  0  0
  9 10  2  0  0  0
 10 13  1  0  0  0
 13 14  2  0  0  0
 14 15  1  0  0  0
 15 16  2  0  0  0
 16 17  1  0  0  0
 17 18  1  0  0  0
 17 19  2  0  0  0
 19 20  1  0  0  0
 20 23  1  0  0  0
 23 24  1  0  0  0
 20 21  2  0  0  0
 21 22  1  0  0  0
 10  1  1  0  0  0
 22 13  1  0  0  0
 35 30  1  0  0  0
  9  3  1  0  0  0
 21 15  1  0  0  0
 33 36  1  0  0  0
  8 11  1  0  0  0
  8 12  1  0  0  0
M  END
> <minimizedAffinity>
-7.00216

> <CNNscore>
0.4381651282

> <CNNaffinity>
6.9188127518

> <CNN_VS>
3.0315825939

> <CNNaffinity_variance>
0.1034674868

$$$$
[H]c1nc(N([H])[H])c2c(-c3sc4c(OC([H])([H])[H])c([H])c(C([H])([H])[H])c([H])c4c3[H])c(C([H])([H])OC([H])([H])C([H])([H])[H])c(C([H])([H])N3C([H])([H])C([H])([H])N([H])C([H])([H])C3([H])[H])n2n1


 36 40  0  0  0  0  0  0  0  0999 V2000
   -1.1600   21.8168  -23.1802 C   0  0  0  0  0  0  0  0  0  0  0  0
   -1.0561   21.5909  -21.7955 C   0  0  0  0  0  0  0  0  0  0  0  0
   -2.3197   21.5883  -21.3306 N   0  0  0  0  0  0  0  0  0  0  0  0
   -2.8208   21.3440  -20.1056 N   0  0  0  0  0  0  0  0  0  0  0  0
   -4.1341   21.3274  -19.8201 C   0  0  0  0  0  0  0  0  0  0  0  0
   -4.9882   21.5677  -20.7865 N   0  0  0  0  0  0  0  0  0  0  0  0
   -4.5186   21.8052  -22.0228 C   0  0  0  0  0  0  0  0  0  0  0  0
   -5.4754   22.2406  -22.9792 N   0  0  0  0  0  0  0  0  0  0  0  0
   -3.1844   21.8179  -22.3601 C   0  0  0  0  0  0  0  0  0  0  0  0
   -2.4336   21.9670  -23.5223 C   0  0  0  0  0  0  0  0  0  0  0  0
   -6.0250   21.5531  -23.5000 H   0  0  0  0  0  0  0  0  0  0  0  0
   -5.5893   23.2873  -23.1602 H   0  0  0  0  0  0  0  0  0  0  0  0
   -3.0463   22.6173  -24.7044 C   0  0  0  0  0  0  0  0  0  0  0  0
   -3.4714   22.2433  -25.9239 C   0  0  0  0  0  0  0  0  0  0  0  0
   -4.0001   23.2098  -26.7053 C   0  0  0  0  0  0  0  0  0  0  0  0
   -4.5004   23.0425  -28.0067 C   0  0  0  0  0  0  0  0  0  0  0  0
   -5.0156   24.1302  -28.7150 C   0  0  0  0  0  0  0  0  0  0  0  0
   -5.5175   23.9684  -30.0925 C   0  0  0  0  0  0  0  0  0  0  0  0
   -5.0656   25.3776  -28.1775 C   0  0  0  0  0  0  0  0  0  0  0  0
   -4.5894   25.5779  -26.8959 C   0  0  0  0  0  0  0  0  0  0  0  0
   -4.0641   24.4807  -26.1954 C   0  0  0  0  0  0  0  0  0  0  0  0
   -3.3826   24.3384  -24.6576 S   0  0  0  0  0  0  0  0  0  0  0  0
   -4.6021   26.7857  -26.2431 O   0  0  0  0  0  0  0  0  0  0  0  0
   -5.5189   27.2332  -25.3020 C   0  0  0  0  0  0  0  0  0  0  0  0
    0.0824   21.8945  -24.0195 C   0  0  0  0  0  0  0  0  0  0  0  0
   -0.1764   21.7461  -25.3224 O   0  0  0  0  0  0  0  0  0  0  0  0
   -0.2784   22.8305  -27.5076 C   0  0  0  0  0  0  0  0  0  0  0  0
    0.4439   22.0962  -26.3977 C   0  0  0  0  0  0  0  0  0  0  0  0
    0.2352   21.4142  -21.0852 C   0  0  0  0  0  0  0  0  0  0  0  0
    0.6492   20.0333  -21.0476 N   0  0  0  0  0  0  0  0  0  0  0  0
    0.1179   19.1482  -20.1267 C   0  0  0  0  0  0  0  0  0  0  0  0
    0.3947   17.6956  -20.6279 C   0  0  0  0  0  0  0  0  0  0  0  0
    1.7554   17.4875  -20.9822 N   0  0  0  0  0  0  0  0  0  0  0  0
    2.5984   18.6164  -20.7652 C   0  0  0  0  0  0  0  0  0  0  0  0
    2.0308   19.8755  -21.3805 C   0  0  0  0  0  0  0  0  0  0  0  0
    2.1121   16.6899  -20.4341 H   0  0  0  0  0  0  0  0  0  0  0  0
 27 28  1  0  0  0
 28 26  1  0  0  0
 26 25  1  0  0  0
 25  1  1  0  0  0
  1  2  2  0  0  0
  2 29  1  0  0  0
 29 30  1  0  0  0
 30 31  1  0  0  0
 31 32  1  0  0  0
 32 33  1  0  0  0
 33 34  1  0  0  0
 34 35  1  0  0  0
  2  3  1  0  0  0
  3  4  1  0  0  0
  4  5  2  0  0  0
  5  6  1  0  0  0
  6  7  2  0  0  0
  7  8  1  0  0  0
  7  9  1  0  0  0
  9 10  2  0  0  0
 10 13  1  0  0  0
 13 14  2  0  0  0
 14 15  1  0  0  0
 15 16  2  0  0  0
 16 17  1  0  0  0
 17 18  1  0  0  0
 17 19  2  0  0  0
 19 20  1  0  0  0
 20 23  1  0  0  0
 23 24  1  0  0  0
 20 21  2  0  0  0
 21 22  1  0  0  0
 10  1  1  0  0  0
 22 13  1  0  0  0
 35 30  1  0  0  0
  9  3  1  0  0  0
 21 15  1  0  0  0
 33 36  1  0  0  0
  8 11  1  0  0  0
  8 12  1  0  0  0
M  END
> <minimizedAffinity>
-7.90724

> <CNNscore>
0.1450504512

> <CNNaffinity>
6.3003835678

> <CNN_VS>
0.9138734937

> <CNNaffinity_variance>
0.2692276537

$$$$
[H]c1nc(N([H])[H])c2c(-c3sc4c(OC([H])([H])[H])c([H])c(C([H])([H])[H])c([H])c4c3[H])c(C([H])([H])OC([H])([H])C([H])([H])[H])c(C([H])([H])N3C([H])([H])C([H])([H])N([H])C([H])([H])C3([H])[H])n2n1


 36 40  0  0  0  0  0  0  0  0999 V2000
   -3.9206   24.0240  -24.2334 C   0  0  0  0  0  0  0  0  0  0  0  0
   -3.7345   24.3546  -25.5882 C   0  0  0  0  0  0  0  0  0  0  0  0
   -2.6697   23.6381  -25.9955 N   0  0  0  0  0  0  0  0  0  0  0  0
   -2.0950   23.5000  -27.2047 N   0  0  0  0  0  0  0  0  0  0  0  0
   -1.0542   22.6871  -27.4540 C   0  0  0  0  0  0  0  0  0  0  0  0
   -0.5572   21.9843  -26.4638 N   0  0  0  0  0  0  0  0  0  0  0  0
   -1.1162   22.0930  -25.2468 C   0  0  0  0  0  0  0  0  0  0  0  0
   -0.4216   21.4554  -24.1835 N   0  0  0  0  0  0  0  0  0  0  0  0
   -2.1898   22.9021  -24.9523 C   0  0  0  0  0  0  0  0  0  0  0  0
   -2.9887   23.1633  -23.8431 C   0  0  0  0  0  0  0  0  0  0  0  0
   -0.5866   20.4652  -23.9879 H   0  0  0  0  0  0  0  0  0  0  0  0
    0.2490   22.0307  -23.5827 H   0  0  0  0  0  0  0  0  0  0  0  0
   -2.4819   22.8358  -22.4897 C   0  0  0  0  0  0  0  0  0  0  0  0
   -1.4083   23.1407  -21.7400 C   0  0  0  0  0  0  0  0  0  0  0  0
   -1.3612   22.6053  -20.5009 C   0  0  0  0  0  0  0  0  0  0  0  0
   -0.3379   22.7885  -19.5569 C   0  0  0  0  0  0  0  0  0  0  0  0
   -0.4050   22.1691  -18.3071 C   0  0  0  0  0  0  0  0  0  0  0  0
    0.6788   22.3340  -17.3204 C   0  0  0  0  0  0  0  0  0  0  0  0
   -1.4555   21.3833  -17.9514 C   0  0  0  0  0  0  0  0  0  0  0  0
   -2.4847   21.1870  -18.8523 C   0  0  0  0  0  0  0  0  0  0  0  0
   -2.4036   21.8054  -20.1100 C   0  0  0  0  0  0  0  0  0  0  0  0
   -3.4271   21.7834  -21.4522 S   0  0  0  0  0  0  0  0  0  0  0  0
   -3.6022   20.4299  -18.6012 O   0  0  0  0  0  0  0  0  0  0  0  0
   -3.6874   19.2624  -17.8555 C   0  0  0  0  0  0  0  0  0  0  0  0
   -5.0320   24.6653  -23.4541 C   0  0  0  0  0  0  0  0  0  0  0  0
   -6.1883   24.0080  -23.5866 O   0  0  0  0  0  0  0  0  0  0  0  0
   -6.6569   21.6443  -23.1934 C   0  0  0  0  0  0  0  0  0  0  0  0
   -6.7920   23.1182  -22.8742 C   0  0  0  0  0  0  0  0  0  0  0  0
   -4.5890   25.3193  -26.3247 C   0  0  0  0  0  0  0  0  0  0  0  0
   -4.9862   24.8159  -27.6164 N   0  0  0  0  0  0  0  0  0  0  0  0
   -5.0426   23.4576  -27.8725 C   0  0  0  0  0  0  0  0  0  0  0  0
   -5.9244   23.2350  -29.1416 C   0  0  0  0  0  0  0  0  0  0  0  0
   -5.5362   24.0611  -30.2311 N   0  0  0  0  0  0  0  0  0  0  0  0
   -4.4010   24.8830  -29.9701 C   0  0  0  0  0  0  0  0  0  0  0  0
   -4.5482   25.6620  -28.6826 C   0  0  0  0  0  0  0  0  0  0  0  0
   -5.3338   23.4533  -31.0395 H   0  0  0  0  0  0  0  0  0  0  0  0
 27 28  1  0  0  0
 28 26  1  0  0  0
 26 25  1  0  0  0
 25  1  1  0  0  0
  1  2  2  0  0  0
  2 29  1  0  0  0
 29 30  1  0  0  0
 30 31  1  0  0  0
 31 32  1  0  0  0
 32 33  1  0  0  0
 33 34  1  0  0  0
 34 35  1  0  0  0
  2  3  1  0  0  0
  3  4  1  0  0  0
  4  5  2  0  0  0
  5  6  1  0  0  0
  6  7  2  0  0  0
  7  8  1  0  0  0
  7  9  1  0  0  0
  9 10  2  0  0  0
 10 13  1  0  0  0
 13 14  2  0  0  0
 14 15  1  0  0  0
 15 16  2  0  0  0
 16 17  1  0  0  0
 17 18  1  0  0  0
 17 19  2  0  0  0
 19 20  1  0  0  0
 20 23  1  0  0  0
 23 24  1  0  0  0
 20 21  2  0  0  0
 21 22  1  0  0  0
 10  1  1  0  0  0
 22 13  1  0  0  0
 35 30  1  0  0  0
  9  3  1  0  0  0
 21 15  1  0  0  0
 33 36  1  0  0  0
  8 11  1  0  0  0
  8 12  1  0  0  0
M  END
> <minimizedAffinity>
-7.00563

> <CNNscore>
0.1193837747

> <CNNaffinity>
6.8328323364

> <CNN_VS>
0.8157293200

> <CNNaffinity_variance>
0.3643642068

$$$$
[H]c1nc(N([H])[H])c2c(-c3sc4c(OC([H])([H])[H])c([H])c(C([H])([H])[H])c([H])c4c3[H])c(C([H])([H])OC([H])([H])C([H])([H])[H])c(C([H])([H])N3C([H])([H])C([H])([H])N([H])C([H])([H])C3([H])[H])n2n1


 36 40  0  0  0  0  0  0  0  0999 V2000
   -3.2513   23.0827  -25.5306 C   0  0  0  0  0  0  0  0  0  0  0  0
   -3.5204   23.9427  -26.6110 C   0  0  0  0  0  0  0  0  0  0  0  0
   -4.1616   25.0024  -26.0827 N   0  0  0  0  0  0  0  0  0  0  0  0
   -4.5847   26.1559  -26.6320 N   0  0  0  0  0  0  0  0  0  0  0  0
   -5.1676   27.1492  -25.9392 C   0  0  0  0  0  0  0  0  0  0  0  0
   -5.3442   26.9929  -24.6486 N   0  0  0  0  0  0  0  0  0  0  0  0
   -4.9230   25.8559  -24.0695 C   0  0  0  0  0  0  0  0  0  0  0  0
   -5.3083   25.6676  -22.7146 N   0  0  0  0  0  0  0  0  0  0  0  0
   -4.3102   24.8214  -24.7390 C   0  0  0  0  0  0  0  0  0  0  0  0
   -3.7346   23.5986  -24.4073 C   0  0  0  0  0  0  0  0  0  0  0  0
   -4.7401   26.0652  -21.9629 H   0  0  0  0  0  0  0  0  0  0  0  0
   -6.1786   25.0870  -22.4982 H   0  0  0  0  0  0  0  0  0  0  0  0
   -4.0922   22.9522  -23.1227 C   0  0  0  0  0  0  0  0  0  0  0  0
   -3.4742   22.6482  -21.9680 C   0  0  0  0  0  0  0  0  0  0  0  0
   -4.2229   22.0456  -21.0190 C   0  0  0  0  0  0  0  0  0  0  0  0
   -3.7826   21.6411  -19.7485 C   0  0  0  0  0  0  0  0  0  0  0  0
   -4.6593   21.0177  -18.8580 C   0  0  0  0  0  0  0  0  0  0  0  0
   -4.1978   20.5648  -17.5323 C   0  0  0  0  0  0  0  0  0  0  0  0
   -5.9615   20.7903  -19.1742 C   0  0  0  0  0  0  0  0  0  0  0  0
   -6.4318   21.1823  -20.4130 C   0  0  0  0  0  0  0  0  0  0  0  0
   -5.5407   21.7990  -21.3053 C   0  0  0  0  0  0  0  0  0  0  0  0
   -5.7326   22.3805  -22.8784 S   0  0  0  0  0  0  0  0  0  0  0  0
   -7.7273   21.0209  -20.8380 O   0  0  0  0  0  0  0  0  0  0  0  0
   -8.8171   21.8377  -20.5708 C   0  0  0  0  0  0  0  0  0  0  0  0
   -2.5469   21.7790  -25.7715 C   0  0  0  0  0  0  0  0  0  0  0  0
   -1.3387   21.7431  -25.2008 O   0  0  0  0  0  0  0  0  0  0  0  0
    0.2691   22.3901  -26.9205 C   0  0  0  0  0  0  0  0  0  0  0  0
   -0.2042   22.2863  -25.4860 C   0  0  0  0  0  0  0  0  0  0  0  0
   -3.1411   23.6443  -28.0147 C   0  0  0  0  0  0  0  0  0  0  0  0
   -4.1142   24.1398  -28.9566 N   0  0  0  0  0  0  0  0  0  0  0  0
   -4.8766   23.2772  -29.7236 C   0  0  0  0  0  0  0  0  0  0  0  0
   -6.1113   24.0649  -30.2650 C   0  0  0  0  0  0  0  0  0  0  0  0
   -5.7509   25.2951  -30.8789 N   0  0  0  0  0  0  0  0  0  0  0  0
   -4.3474   25.5406  -30.9239 C   0  0  0  0  0  0  0  0  0  0  0  0
   -3.6961   25.3612  -29.5712 C   0  0  0  0  0  0  0  0  0  0  0  0
   -6.1246   25.2964  -31.8403 H   0  0  0  0  0  0  0  0  0  0  0  0
 27 28  1  0  0  0
 28 26  1  0  0  0
 26 25  1  0  0  0
 25  1  1  0  0  0
  1  2  2  0  0  0
  2 29  1  0  0  0
 29 30  1  0  0  0
 30 31  1  0  0  0
 31 32  1  0  0  0
 32 33  1  0  0  0
 33 34  1  0  0  0
 34 35  1  0  0  0
  2  3  1  0  0  0
  3  4  1  0  0  0
  4  5  2  0  0  0
  5  6  1  0  0  0
  6  7  2  0  0  0
  7  8  1  0  0  0
  7  9  1  0  0  0
  9 10  2  0  0  0
 10 13  1  0  0  0
 13 14  2  0  0  0
 14 15  1  0  0  0
 15 16  2  0  0  0
 16 17  1  0  0  0
 17 18  1  0  0  0
 17 19  2  0  0  0
 19 20  1  0  0  0
 20 23  1  0  0  0
 23 24  1  0  0  0
 20 21  2  0  0  0
 21 22  1  0  0  0
 10  1  1  0  0  0
 22 13  1  0  0  0
 35 30  1  0  0  0
  9  3  1  0  0  0
 21 15  1  0  0  0
 33 36  1  0  0  0
  8 11  1  0  0  0
  8 12  1  0  0  0
M  END
> <minimizedAffinity>
-8.03018

> <CNNscore>
0.0959426165

> <CNNaffinity>
6.3764009476

> <CNN_VS>
0.6117686033

> <CNNaffinity_variance>
0.5805330276

$$$$
[H]c1nc(N([H])[H])c2c(-c3sc4c(OC([H])([H])[H])c([H])c(C([H])([H])[H])c([H])c4c3[H])c(C([H])([H])OC([H])([H])C([H])([H])[H])c(C([H])([H])N3C([H])([H])C([H])([H])N([H])C([H])([H])C3([H])[H])n2n1


 36 40  0  0  0  0  0  0  0  0999 V2000
   -3.1900   22.9219  -25.4929 C   0  0  0  0  0  0  0  0  0  0  0  0
   -4.0338   23.3919  -26.5159 C   0  0  0  0  0  0  0  0  0  0  0  0
   -4.8693   24.2677  -25.9260 N   0  0  0  0  0  0  0  0  0  0  0  0
   -5.8243   25.0706  -26.4307 N   0  0  0  0  0  0  0  0  0  0  0  0
   -6.5405   25.9399  -25.6974 C   0  0  0  0  0  0  0  0  0  0  0  0
   -6.3056   26.0148  -24.4088 N   0  0  0  0  0  0  0  0  0  0  0  0
   -5.3509   25.2329  -23.8772 C   0  0  0  0  0  0  0  0  0  0  0  0
   -5.2727   25.2234  -22.4582 N   0  0  0  0  0  0  0  0  0  0  0  0
   -4.5865   24.3405  -24.5937 C   0  0  0  0  0  0  0  0  0  0  0  0
   -3.5257   23.4776  -24.3353 C   0  0  0  0  0  0  0  0  0  0  0  0
   -4.7248   25.9377  -21.9729 H   0  0  0  0  0  0  0  0  0  0  0  0
   -5.7701   24.4487  -21.9160 H   0  0  0  0  0  0  0  0  0  0  0  0
   -3.2673   23.0410  -22.9430 C   0  0  0  0  0  0  0  0  0  0  0  0
   -3.8372   22.2147  -22.0485 C   0  0  0  0  0  0  0  0  0  0  0  0
   -3.2269   22.1048  -20.8486 C   0  0  0  0  0  0  0  0  0  0  0  0
   -3.6491   21.3059  -19.7738 C   0  0  0  0  0  0  0  0  0  0  0  0
   -2.9299   21.2873  -18.5769 C   0  0  0  0  0  0  0  0  0  0  0  0
   -3.3820   20.4724  -17.4336 C   0  0  0  0  0  0  0  0  0  0  0  0
   -1.7989   22.0222  -18.4081 C   0  0  0  0  0  0  0  0  0  0  0  0
   -1.3493   22.8140  -19.4475 C   0  0  0  0  0  0  0  0  0  0  0  0
   -2.0845   22.8341  -20.6432 C   0  0  0  0  0  0  0  0  0  0  0  0
   -1.8707   23.6747  -22.0914 S   0  0  0  0  0  0  0  0  0  0  0  0
   -0.2145   23.5854  -19.4007 O   0  0  0  0  0  0  0  0  0  0  0  0
    0.9794   23.3019  -18.7521 C   0  0  0  0  0  0  0  0  0  0  0  0
   -2.1317   21.9043  -25.8063 C   0  0  0  0  0  0  0  0  0  0  0  0
   -0.9026   22.3495  -25.5275 O   0  0  0  0  0  0  0  0  0  0  0  0
    0.0131   22.7837  -27.7488 C   0  0  0  0  0  0  0  0  0  0  0  0
    0.1341   22.6094  -26.2496 C   0  0  0  0  0  0  0  0  0  0  0  0
   -3.9452   22.9416  -27.9275 C   0  0  0  0  0  0  0  0  0  0  0  0
   -4.4553   23.9301  -28.8453 N   0  0  0  0  0  0  0  0  0  0  0  0
   -5.2613   23.5733  -29.9114 C   0  0  0  0  0  0  0  0  0  0  0  0
   -6.0067   24.8512  -30.4107 C   0  0  0  0  0  0  0  0  0  0  0  0
   -5.1291   25.9477  -30.6297 N   0  0  0  0  0  0  0  0  0  0  0  0
   -3.7529   25.6537  -30.4018 C   0  0  0  0  0  0  0  0  0  0  0  0
   -3.5276   24.9971  -29.0586 C   0  0  0  0  0  0  0  0  0  0  0  0
   -5.2492   26.2663  -31.6033 H   0  0  0  0  0  0  0  0  0  0  0  0
 27 28  1  0  0  0
 28 26  1  0  0  0
 26 25  1  0  0  0
 25  1  1  0  0  0
  1  2  2  0  0  0
  2 29  1  0  0  0
 29 30  1  0  0  0
 30 31  1  0  0  0
 31 32  1  0  0  0
 32 33  1  0  0  0
 33 34  1  0  0  0
 34 35  1  0  0  0
  2  3  1  0  0  0
  3  4  1  0  0  0
  4  5  2  0  0  0
  5  6  1  0  0  0
  6  7  2  0  0  0
  7  8  1  0  0  0
  7  9  1  0  0  0
  9 10  2  0  0  0
 10 13  1  0  0  0
 13 14  2  0  0  0
 14 15  1  0  0  0
 15 16  2  0  0  0
 16 17  1  0  0  0
 17 18  1  0  0  0
 17 19  2  0  0  0
 19 20  1  0  0  0
 20 23  1  0  0  0
 23 24  1  0  0  0
 20 21  2  0  0  0
 21 22  1  0  0  0
 10  1  1  0  0  0
 22 13  1  0  0  0
 35 30  1  0  0  0
  9  3  1  0  0  0
 21 15  1  0  0  0
 33 36  1  0  0  0
  8 11  1  0  0  0
  8 12  1  0  0  0
M  END
> <minimizedAffinity>
-7.83422

> <CNNscore>
0.0645831898

> <CNNaffinity>
6.2603445053

> <CNN_VS>
0.4043130279

> <CNNaffinity_variance>
0.5918423533

$$$$
[H]c1nc(N([H])[H])c2c(-c3sc4c(OC([H])([H])[H])c([H])c(C([H])([H])[H])c([H])c4c3[H])c(C([H])([H])OC([H])([H])C([H])([H])[H])c(C([H])([H])N3C([H])([H])C([H])([H])N([H])C([H])([H])C3([H])[H])n2n1


 36 40  0  0  0  0  0  0  0  0999 V2000
   -2.9801   23.4477  -24.5836 C   0  0  0  0  0  0  0  0  0  0  0  0
   -3.0339   23.9277  -23.2623 C   0  0  0  0  0  0  0  0  0  0  0  0
   -4.2962   24.3604  -23.0826 N   0  0  0  0  0  0  0  0  0  0  0  0
   -4.9298   24.8427  -21.9975 N   0  0  0  0  0  0  0  0  0  0  0  0
   -6.2301   25.1820  -21.9750 C   0  0  0  0  0  0  0  0  0  0  0  0
   -6.9327   25.0432  -23.0742 N   0  0  0  0  0  0  0  0  0  0  0  0
   -6.3305   24.5545  -24.1714 C   0  0  0  0  0  0  0  0  0  0  0  0
   -7.0893   24.6035  -25.3720 N   0  0  0  0  0  0  0  0  0  0  0  0
   -5.0068   24.1828  -24.2332 C   0  0  0  0  0  0  0  0  0  0  0  0
   -4.1571   23.6104  -25.1750 C   0  0  0  0  0  0  0  0  0  0  0  0
   -7.7401   23.8468  -25.5951 H   0  0  0  0  0  0  0  0  0  0  0  0
   -6.9487   25.4237  -26.0420 H   0  0  0  0  0  0  0  0  0  0  0  0
   -4.5161   23.6747  -26.6112 C   0  0  0  0  0  0  0  0  0  0  0  0
   -4.8019   22.8035  -27.5945 C   0  0  0  0  0  0  0  0  0  0  0  0
   -5.0999   23.3282  -28.8029 C   0  0  0  0  0  0  0  0  0  0  0  0
   -5.4242   22.6065  -29.9630 C   0  0  0  0  0  0  0  0  0  0  0  0
   -5.7056   23.2717  -31.1582 C   0  0  0  0  0  0  0  0  0  0  0  0
   -6.0199   22.5204  -32.3879 C   0  0  0  0  0  0  0  0  0  0  0  0
   -5.6899   24.6281  -31.2451 C   0  0  0  0  0  0  0  0  0  0  0  0
   -5.3826   25.3711  -30.1213 C   0  0  0  0  0  0  0  0  0  0  0  0
   -5.0913   24.6934  -28.9269 C   0  0  0  0  0  0  0  0  0  0  0  0
   -4.6578   25.2403  -27.3899 S   0  0  0  0  0  0  0  0  0  0  0  0
   -5.3513   26.7432  -30.0826 O   0  0  0  0  0  0  0  0  0  0  0  0
   -5.7280   27.6301  -31.0816 C   0  0  0  0  0  0  0  0  0  0  0  0
   -1.6934   22.8962  -25.1260 C   0  0  0  0  0  0  0  0  0  0  0  0
   -1.8778   22.1857  -26.2431 O   0  0  0  0  0  0  0  0  0  0  0  0
    0.1056   22.6542  -27.5878 C   0  0  0  0  0  0  0  0  0  0  0  0
   -1.3300   22.2065  -27.4106 C   0  0  0  0  0  0  0  0  0  0  0  0
   -1.8732   23.9230  -22.3371 C   0  0  0  0  0  0  0  0  0  0  0  0
   -1.8683   22.7640  -21.4789 N   0  0  0  0  0  0  0  0  0  0  0  0
   -2.2674   22.8466  -20.1569 C   0  0  0  0  0  0  0  0  0  0  0  0
   -2.5925   21.4050  -19.6530 C   0  0  0  0  0  0  0  0  0  0  0  0
   -1.5531   20.4777  -19.9356 N   0  0  0  0  0  0  0  0  0  0  0  0
   -0.4118   21.0495  -20.5702 C   0  0  0  0  0  0  0  0  0  0  0  0
   -0.7889   21.8756  -21.7791 C   0  0  0  0  0  0  0  0  0  0  0  0
   -1.2618   20.0406  -19.0479 H   0  0  0  0  0  0  0  0  0  0  0  0
 27 28  1  0  0  0
 28 26  1  0  0  0
 26 25  1  0  0  0
 25  1  1  0  0  0
  1  2  2  0  0  0
  2 29  1  0  0  0
 29 30  1  0  0  0
 30 31  1  0  0  0
 31 32  1  0  0  0
 32 33  1  0  0  0
 33 34  1  0  0  0
 34 35  1  0  0  0
  2  3  1  0  0  0
  3  4  1  0  0  0
  4  5  2  0  0  0
  5  6  1  0  0  0
  6  7  2  0  0  0
  7  8  1  0  0  0
  7  9  1  0  0  0
  9 10  2  0  0  0
 10 13  1  0  0  0
 13 14  2  0  0  0
 14 15  1  0  0  0
 15 16  2  0  0  0
 16 17  1  0  0  0
 17 18  1  0  0  0
 17 19  2  0  0  0
 19 20  1  0  0  0
 20 23  1  0  0  0
 23 24  1  0  0  0
 20 21  2  0  0  0
 21 22  1  0  0  0
 10  1  1  0  0  0
 22 13  1  0  0  0
 35 30  1  0  0  0
  9  3  1  0  0  0
 21 15  1  0  0  0
 33 36  1  0  0  0
  8 11  1  0  0  0
  8 12  1  0  0  0
M  END
> <minimizedAffinity>
-7.26085

> <CNNscore>
0.0521108955

> <CNNaffinity>
6.3418159485

> <CNN_VS>
0.3304777145

> <CNNaffinity_variance>
0.2313321829

$$$$
[H]c1nc(N([H])C(=O)c2c([H])c([H])c(C3([H])C([H])([H])C([H])([H])N(C([H])(C([H])([H])[H])C([H])([H])[H])C([H])([H])C3([H])[H])c([H])c2[H])c([H])c(Oc2c(OC([H])([H])C([H])([H])OC([H])([H])[H])c([H])c3c(c2[H])c([H])c([H])n3C(=O)N([H])C([H])([H])[H])c1[H]


 45 49  0  0  0  0  0  0  0  0999 V2000
   -3.9022   22.8729  -26.3053 C   0  0  0  0  0  0  0  0  0  0  0  0
   -3.4937   23.1531  -27.6388 C   0  0  0  0  0  0  0  0  0  0  0  0
   -2.2234   22.9454  -28.0592 C   0  0  0  0  0  0  0  0  0  0  0  0
   -1.3086   22.4639  -27.2158 N   0  0  0  0  0  0  0  0  0  0  0  0
   -1.6036   22.1590  -25.9000 C   0  0  0  0  0  0  0  0  0  0  0  0
   -2.8964   22.3760  -25.4923 C   0  0  0  0  0  0  0  0  0  0  0  0
   -0.5493   21.6580  -25.1204 N   0  0  0  0  0  0  0  0  0  0  0  0
   -0.3004   22.0286  -23.7850 C   0  0  0  0  0  0  0  0  0  0  0  0
   -0.9459   22.8362  -23.0828 O   0  0  0  0  0  0  0  0  0  0  0  0
    0.1222   20.9362  -25.5699 H   0  0  0  0  0  0  0  0  0  0  0  0
    0.8573   21.4247  -23.0508 C   0  0  0  0  0  0  0  0  0  0  0  0
    2.0629   21.1962  -23.6687 C   0  0  0  0  0  0  0  0  0  0  0  0
    3.1418   20.6195  -22.9860 C   0  0  0  0  0  0  0  0  0  0  0  0
    3.0199   20.2629  -21.6622 C   0  0  0  0  0  0  0  0  0  0  0  0
    1.8048   20.4982  -21.0544 C   0  0  0  0  0  0  0  0  0  0  0  0
    0.7409   21.0657  -21.7242 C   0  0  0  0  0  0  0  0  0  0  0  0
    4.1248   19.6536  -20.8964 C   0  0  0  0  0  0  0  0  0  0  0  0
    4.8470   20.6787  -20.0302 C   0  0  0  0  0  0  0  0  0  0  0  0
    5.5904   19.8862  -18.9422 C   0  0  0  0  0  0  0  0  0  0  0  0
    6.1984   18.7820  -19.5767 N   0  0  0  0  0  0  0  0  0  0  0  0
    6.4604   18.8708  -20.9630 C   0  0  0  0  0  0  0  0  0  0  0  0
    5.1712   18.9991  -21.7713 C   0  0  0  0  0  0  0  0  0  0  0  0
    6.9661   17.9028  -18.7921 C   0  0  0  0  0  0  0  0  0  0  0  0
    7.6033   16.8730  -19.7383 C   0  0  0  0  0  0  0  0  0  0  0  0
    6.1692   17.0873  -17.7927 C   0  0  0  0  0  0  0  0  0  0  0  0
   -5.1336   23.1052  -26.0090 O   0  0  0  0  0  0  0  0  0  0  0  0
  -11.5237   27.3993  -22.5928 C   0  0  0  0  0  0  0  0  0  0  0  0
  -10.3803   26.5213  -22.9736 N   0  0  0  0  0  0  0  0  0  0  0  0
   -9.8903   25.5883  -22.0727 C   0  0  0  0  0  0  0  0  0  0  0  0
  -10.4957   25.5532  -20.9102 O   0  0  0  0  0  0  0  0  0  0  0  0
   -8.8308   24.6716  -22.2341 N   0  0  0  0  0  0  0  0  0  0  0  0
   -8.4479   23.7920  -21.2285 C   0  0  0  0  0  0  0  0  0  0  0  0
   -7.4071   23.0199  -21.6440 C   0  0  0  0  0  0  0  0  0  0  0  0
   -7.1085   23.4010  -22.9351 C   0  0  0  0  0  0  0  0  0  0  0  0
   -6.1524   22.9543  -23.8293 C   0  0  0  0  0  0  0  0  0  0  0  0
   -6.0217   23.4734  -25.0811 C   0  0  0  0  0  0  0  0  0  0  0  0
   -6.9373   24.5240  -25.4365 C   0  0  0  0  0  0  0  0  0  0  0  0
   -7.8749   24.9370  -24.5141 C   0  0  0  0  0  0  0  0  0  0  0  0
   -7.9957   24.4013  -23.2465 C   0  0  0  0  0  0  0  0  0  0  0  0
  -10.0511   26.7066  -23.9141 H   0  0  0  0  0  0  0  0  0  0  0  0
   -6.7964   25.0225  -26.6526 O   0  0  0  0  0  0  0  0  0  0  0  0
   -6.1008   25.8357  -27.4238 C   0  0  0  0  0  0  0  0  0  0  0  0
   -5.9982   25.4549  -28.8641 C   0  0  0  0  0  0  0  0  0  0  0  0
   -5.4129   26.3352  -29.7204 O   0  0  0  0  0  0  0  0  0  0  0  0
   -4.2074   25.8631  -30.2219 C   0  0  0  0  0  0  0  0  0  0  0  0
 27 28  1  0  0  0
 28 29  1  0  0  0
 29 30  2  0  0  0
 29 31  1  0  0  0
 31 32  1  0  0  0
 32 33  2  0  0  0
 33 34  1  0  0  0
 34 35  2  0  0  0
 35 36  1  0  0  0
 36 26  1  0  0  0
 26  1  1  0  0  0
  1  2  2  0  0  0
  2  3  1  0  0  0
  3  4  2  0  0  0
  4  5  1  0  0  0
  5  7  1  0  0  0
  7  8  1  0  0  0
  8  9  2  0  0  0
  8 11  1  0  0  0
 11 12  2  0  0  0
 12 13  1  0  0  0
 13 14  2  0  0  0
 14 15  1  0  0  0
 15 16  2  0  0  0
 14 17  1  0  0  0
 17 18  1  0  0  0
 18 19  1  0  0  0
 19 20  1  0  0  0
 20 21  1  0  0  0
 21 22  1  0  0  0
 20 23  1  0  0  0
 23 24  1  0  0  0
 23 25  1  0  0  0
  5  6  2  0  0  0
 36 37  2  0  0  0
 37 41  1  0  0  0
 41 42  1  0  0  0
 42 43  1  0  0  0
 43 44  1  0  0  0
 44 45  1  0  0  0
 37 38  1  0  0  0
 38 39  2  0  0  0
 39 31  1  0  0  0
 39 34  1  0  0  0
  6  1  1  0  0  0
 16 11  1  0  0  0
 22 17  1  0  0  0
 28 40  1  0  0  0
  7 10  1  0  0  0
M  END
> <minimizedAffinity>
-8.70142

> <CNNscore>
0.4224047065

> <CNNaffinity>
7.0003943443

> <CNN_VS>
2.9569995403

> <CNNaffinity_variance>
0.0293785520

$$$$
[H]c1nc(N([H])C(=O)c2c([H])c([H])c(C3([H])C([H])([H])C([H])([H])N(C([H])(C([H])([H])[H])C([H])([H])[H])C([H])([H])C3([H])[H])c([H])c2[H])c([H])c(Oc2c(OC([H])([H])C([H])([H])OC([H])([H])[H])c([H])c3c(c2[H])c([H])c([H])n3C(=O)N([H])C([H])([H])[H])c1[H]


 45 49  0  0  0  0  0  0  0  0999 V2000
   -8.0407   22.2160  -21.0790 C   0  0  0  0  0  0  0  0  0  0  0  0
   -8.5480   23.5364  -20.9282 C   0  0  0  0  0  0  0  0  0  0  0  0
   -9.1865   23.9361  -19.8030 C   0  0  0  0  0  0  0  0  0  0  0  0
   -9.3574   23.0839  -18.7908 N   0  0  0  0  0  0  0  0  0  0  0  0
   -8.9017   21.7795  -18.8372 C   0  0  0  0  0  0  0  0  0  0  0  0
   -8.2568   21.3928  -19.9859 C   0  0  0  0  0  0  0  0  0  0  0  0
   -9.1459   20.9888  -17.7035 N   0  0  0  0  0  0  0  0  0  0  0  0
  -10.4158   20.5166  -17.3202 C   0  0  0  0  0  0  0  0  0  0  0  0
  -11.5084   20.7084  -17.8960 O   0  0  0  0  0  0  0  0  0  0  0  0
   -8.3046   20.7188  -17.0764 H   0  0  0  0  0  0  0  0  0  0  0  0
  -10.5543   19.6768  -16.0875 C   0  0  0  0  0  0  0  0  0  0  0  0
  -11.6789   18.9241  -15.8505 C   0  0  0  0  0  0  0  0  0  0  0  0
  -11.8144   18.1487  -14.6916 C   0  0  0  0  0  0  0  0  0  0  0  0
  -10.8116   18.1208  -13.7493 C   0  0  0  0  0  0  0  0  0  0  0  0
   -9.6885   18.8805  -14.0000 C   0  0  0  0  0  0  0  0  0  0  0  0
   -9.5525   19.6448  -15.1401 C   0  0  0  0  0  0  0  0  0  0  0  0
  -10.9028   17.3206  -12.5125 C   0  0  0  0  0  0  0  0  0  0  0  0
  -11.4200   15.9131  -12.7847 C   0  0  0  0  0  0  0  0  0  0  0  0
  -10.9983   15.0517  -11.5827 C   0  0  0  0  0  0  0  0  0  0  0  0
  -11.2619   15.8064  -10.4198 N   0  0  0  0  0  0  0  0  0  0  0  0
  -12.2321   16.8317  -10.4960 C   0  0  0  0  0  0  0  0  0  0  0  0
  -11.8123   17.9312  -11.4691 C   0  0  0  0  0  0  0  0  0  0  0  0
  -10.9804   15.2248   -9.1705 C   0  0  0  0  0  0  0  0  0  0  0  0
   -9.6979   14.3925   -9.3249 C   0  0  0  0  0  0  0  0  0  0  0  0
  -12.0315   14.2507   -8.6752 C   0  0  0  0  0  0  0  0  0  0  0  0
   -7.4488   21.9392  -22.1886 O   0  0  0  0  0  0  0  0  0  0  0  0
    0.6732   21.9858  -24.4191 C   0  0  0  0  0  0  0  0  0  0  0  0
   -0.8069   22.0662  -24.2578 N   0  0  0  0  0  0  0  0  0  0  0  0
   -1.5995   22.4865  -25.3147 C   0  0  0  0  0  0  0  0  0  0  0  0
   -0.9568   22.7938  -26.4155 O   0  0  0  0  0  0  0  0  0  0  0  0
   -3.0015   22.6291  -25.3695 N   0  0  0  0  0  0  0  0  0  0  0  0
   -3.6607   23.0705  -26.5107 C   0  0  0  0  0  0  0  0  0  0  0  0
   -5.0038   23.1145  -26.2960 C   0  0  0  0  0  0  0  0  0  0  0  0
   -5.2221   22.6972  -25.0000 C   0  0  0  0  0  0  0  0  0  0  0  0
   -6.3835   22.5491  -24.2635 C   0  0  0  0  0  0  0  0  0  0  0  0
   -6.3816   22.1140  -22.9735 C   0  0  0  0  0  0  0  0  0  0  0  0
   -5.0968   21.8111  -22.4026 C   0  0  0  0  0  0  0  0  0  0  0  0
   -3.9655   21.9722  -23.1737 C   0  0  0  0  0  0  0  0  0  0  0  0
   -3.9823   22.4153  -24.4821 C   0  0  0  0  0  0  0  0  0  0  0  0
   -1.1072   21.7896  -23.3300 H   0  0  0  0  0  0  0  0  0  0  0  0
   -5.1087   21.3946  -21.1481 O   0  0  0  0  0  0  0  0  0  0  0  0
   -4.3953   21.2075  -20.0545 C   0  0  0  0  0  0  0  0  0  0  0  0
   -4.4128   22.3172  -19.0555 C   0  0  0  0  0  0  0  0  0  0  0  0
   -5.6194   22.7597  -18.6090 O   0  0  0  0  0  0  0  0  0  0  0  0
   -5.7218   24.1438  -18.6459 C   0  0  0  0  0  0  0  0  0  0  0  0
 27 28  1  0  0  0
 28 29  1  0  0  0
 29 30  2  0  0  0
 29 31  1  0  0  0
 31 32  1  0  0  0
 32 33  2  0  0  0
 33 34  1  0  0  0
 34 35  2  0  0  0
 35 36  1  0  0  0
 36 26  1  0  0  0
 26  1  1  0  0  0
  1  2  2  0  0  0
  2  3  1  0  0  0
  3  4  2  0  0  0
  4  5  1  0  0  0
  5  7  1  0  0  0
  7  8  1  0  0  0
  8  9  2  0  0  0
  8 11  1  0  0  0
 11 12  2  0  0  0
 12 13  1  0  0  0
 13 14  2  0  0  0
 14 15  1  0  0  0
 15 16  2  0  0  0
 14 17  1  0  0  0
 17 18  1  0  0  0
 18 19  1  0  0  0
 19 20  1  0  0  0
 20 21  1  0  0  0
 21 22  1  0  0  0
 20 23  1  0  0  0
 23 24  1  0  0  0
 23 25  1  0  0  0
  5  6  2  0  0  0
 36 37  2  0  0  0
 37 41  1  0  0  0
 41 42  1  0  0  0
 42 43  1  0  0  0
 43 44  1  0  0  0
 44 45  1  0  0  0
 37 38  1  0  0  0
 38 39  2  0  0  0
 39 31  1  0  0  0
 39 34  1  0  0  0
  6  1  1  0  0  0
 16 11  1  0  0  0
 22 17  1  0  0  0
 28 40  1  0  0  0
  7 10  1  0  0  0
M  END
> <minimizedAffinity>
-6.54174

> <CNNscore>
0.2523977458

> <CNNaffinity>
5.6991243362

> <CNN_VS>
1.4384461641

> <CNNaffinity_variance>
0.1305725127

$$$$
[H]c1nc(N([H])C(=O)c2c([H])c([H])c(C3([H])C([H])([H])C([H])([H])N(C([H])(C([H])([H])[H])C([H])([H])[H])C([H])([H])C3([H])[H])c([H])c2[H])c([H])c(Oc2c(OC([H])([H])C([H])([H])OC([H])([H])[H])c([H])c3c(c2[H])c([H])c([H])n3C(=O)N([H])C([H])([H])[H])c1[H]


 45 49  0  0  0  0  0  0  0  0999 V2000
   -7.1125   24.8075  -23.0386 C   0  0  0  0  0  0  0  0  0  0  0  0
   -8.2589   25.4740  -23.5534 C   0  0  0  0  0  0  0  0  0  0  0  0
   -9.4745   25.3696  -22.9660 C   0  0  0  0  0  0  0  0  0  0  0  0
   -9.6272   24.6246  -21.8697 N   0  0  0  0  0  0  0  0  0  0  0  0
   -8.5769   23.9373  -21.2904 C   0  0  0  0  0  0  0  0  0  0  0  0
   -7.3524   24.0556  -21.8999 C   0  0  0  0  0  0  0  0  0  0  0  0
   -8.8739   23.1920  -20.1386 N   0  0  0  0  0  0  0  0  0  0  0  0
   -8.7692   21.7908  -20.0477 C   0  0  0  0  0  0  0  0  0  0  0  0
   -8.4082   20.9919  -20.9383 O   0  0  0  0  0  0  0  0  0  0  0  0
   -9.2061   23.7245  -19.2554 H   0  0  0  0  0  0  0  0  0  0  0  0
   -9.1127   21.1029  -18.7620 C   0  0  0  0  0  0  0  0  0  0  0  0
   -8.3806   20.0379  -18.2962 C   0  0  0  0  0  0  0  0  0  0  0  0
   -8.7092   19.3860  -17.1005 C   0  0  0  0  0  0  0  0  0  0  0  0
   -9.7875   19.8013  -16.3526 C   0  0  0  0  0  0  0  0  0  0  0  0
  -10.5132   20.8715  -16.8316 C   0  0  0  0  0  0  0  0  0  0  0  0
  -10.1918   21.5151  -18.0085 C   0  0  0  0  0  0  0  0  0  0  0  0
  -10.1763   19.1511  -15.0860 C   0  0  0  0  0  0  0  0  0  0  0  0
   -9.2794   19.5788  -13.9305 C   0  0  0  0  0  0  0  0  0  0  0  0
  -10.0544   19.2723  -12.6382 C   0  0  0  0  0  0  0  0  0  0  0  0
  -10.6291   17.9928  -12.7937 N   0  0  0  0  0  0  0  0  0  0  0  0
  -10.0375   17.1044  -13.7206 C   0  0  0  0  0  0  0  0  0  0  0  0
  -10.1265   17.6403  -15.1478 C   0  0  0  0  0  0  0  0  0  0  0  0
  -11.3803   17.4662  -11.7277 C   0  0  0  0  0  0  0  0  0  0  0  0
  -10.4297   16.6248  -10.8616 C   0  0  0  0  0  0  0  0  0  0  0  0
  -12.4877   16.5172  -12.1426 C   0  0  0  0  0  0  0  0  0  0  0  0
   -6.0042   24.9745  -23.6724 O   0  0  0  0  0  0  0  0  0  0  0  0
    1.6039   21.3620  -23.7772 C   0  0  0  0  0  0  0  0  0  0  0  0
    0.2692   21.9841  -24.0111 N   0  0  0  0  0  0  0  0  0  0  0  0
   -0.2189   22.1175  -25.3018 C   0  0  0  0  0  0  0  0  0  0  0  0
    0.5656   21.6689  -26.2518 O   0  0  0  0  0  0  0  0  0  0  0  0
   -1.4429   22.6688  -25.7342 N   0  0  0  0  0  0  0  0  0  0  0  0
   -1.7949   22.7383  -27.0770 C   0  0  0  0  0  0  0  0  0  0  0  0
   -3.0221   23.3095  -27.2171 C   0  0  0  0  0  0  0  0  0  0  0  0
   -3.4748   23.6157  -25.9510 C   0  0  0  0  0  0  0  0  0  0  0  0
   -4.6469   24.2022  -25.5090 C   0  0  0  0  0  0  0  0  0  0  0  0
   -4.9045   24.4192  -24.1899 C   0  0  0  0  0  0  0  0  0  0  0  0
   -3.8863   24.0046  -23.2628 C   0  0  0  0  0  0  0  0  0  0  0  0
   -2.7342   23.4232  -23.7478 C   0  0  0  0  0  0  0  0  0  0  0  0
   -2.4858   23.2095  -25.0898 C   0  0  0  0  0  0  0  0  0  0  0  0
   -0.1780   22.2687  -23.1472 H   0  0  0  0  0  0  0  0  0  0  0  0
   -4.1468   24.2255  -21.9858 O   0  0  0  0  0  0  0  0  0  0  0  0
   -4.0170   23.7754  -20.7528 C   0  0  0  0  0  0  0  0  0  0  0  0
   -4.3345   22.3320  -20.5387 C   0  0  0  0  0  0  0  0  0  0  0  0
   -3.4082   21.5572  -19.9123 O   0  0  0  0  0  0  0  0  0  0  0  0
   -2.1227   21.7827  -20.3860 C   0  0  0  0  0  0  0  0  0  0  0  0
 27 28  1  0  0  0
 28 29  1  0  0  0
 29 30  2  0  0  0
 29 31  1  0  0  0
 31 32  1  0  0  0
 32 33  2  0  0  0
 33 34  1  0  0  0
 34 35  2  0  0  0
 35 36  1  0  0  0
 36 26  1  0  0  0
 26  1  1  0  0  0
  1  2  2  0  0  0
  2  3  1  0  0  0
  3  4  2  0  0  0
  4  5  1  0  0  0
  5  7  1  0  0  0
  7  8  1  0  0  0
  8  9  2  0  0  0
  8 11  1  0  0  0
 11 12  2  0  0  0
 12 13  1  0  0  0
 13 14  2  0  0  0
 14 15  1  0  0  0
 15 16  2  0  0  0
 14 17  1  0  0  0
 17 18  1  0  0  0
 18 19  1  0  0  0
 19 20  1  0  0  0
 20 21  1  0  0  0
 21 22  1  0  0  0
 20 23  1  0  0  0
 23 24  1  0  0  0
 23 25  1  0  0  0
  5  6  2  0  0  0
 36 37  2  0  0  0
 37 41  1  0  0  0
 41 42  1  0  0  0
 42 43  1  0  0  0
 43 44  1  0  0  0
 44 45  1  0  0  0
 37 38  1  0  0  0
 38 39  2  0  0  0
 39 31  1  0  0  0
 39 34  1  0  0  0
  6  1  1  0  0  0
 16 11  1  0  0  0
 22 17  1  0  0  0
 28 40  1  0  0  0
  7 10  1  0  0  0
M  END
> <minimizedAffinity>
-7.00856

> <CNNscore>
0.2349592149

> <CNNaffinity>
6.0873961449

> <CNN_VS>
1.4302898645

> <CNNaffinity_variance>
0.4232629836

$$$$
[H]c1nc(N([H])C(=O)c2c([H])c([H])c(C3([H])C([H])([H])C([H])([H])N(C([H])(C([H])([H])[H])C([H])([H])[H])C([H])([H])C3([H])[H])c([H])c2[H])c([H])c(Oc2c(OC([H])([H])C([H])([H])OC([H])([H])[H])c([H])c3c(c2[H])c([H])c([H])n3C(=O)N([H])C([H])([H])[H])c1[H]


 45 49  0  0  0  0  0  0  0  0999 V2000
   -5.8851   22.2620  -16.6183 C   0  0  0  0  0  0  0  0  0  0  0  0
   -5.8077   23.4943  -15.9120 C   0  0  0  0  0  0  0  0  0  0  0  0
   -5.7407   24.6858  -16.5519 C   0  0  0  0  0  0  0  0  0  0  0  0
   -5.7460   24.7315  -17.8853 N   0  0  0  0  0  0  0  0  0  0  0  0
   -5.8187   23.5916  -18.6641 C   0  0  0  0  0  0  0  0  0  0  0  0
   -5.8862   22.3933  -17.9975 C   0  0  0  0  0  0  0  0  0  0  0  0
   -5.8173   23.7807  -20.0550 N   0  0  0  0  0  0  0  0  0  0  0  0
   -4.6929   23.5977  -20.8825 C   0  0  0  0  0  0  0  0  0  0  0  0
   -3.5420   23.2488  -20.5422 O   0  0  0  0  0  0  0  0  0  0  0  0
   -6.7409   24.0875  -20.5312 H   0  0  0  0  0  0  0  0  0  0  0  0
   -4.8119   23.8284  -22.3579 C   0  0  0  0  0  0  0  0  0  0  0  0
   -3.9704   24.6862  -23.0237 C   0  0  0  0  0  0  0  0  0  0  0  0
   -4.0895   24.9121  -24.4012 C   0  0  0  0  0  0  0  0  0  0  0  0
   -5.0649   24.2722  -25.1316 C   0  0  0  0  0  0  0  0  0  0  0  0
   -5.9023   23.4138  -24.4509 C   0  0  0  0  0  0  0  0  0  0  0  0
   -5.7872   23.1896  -23.0948 C   0  0  0  0  0  0  0  0  0  0  0  0
   -5.2332   24.4733  -26.5841 C   0  0  0  0  0  0  0  0  0  0  0  0
   -4.3784   23.5051  -27.3932 C   0  0  0  0  0  0  0  0  0  0  0  0
   -4.9940   23.4495  -28.8012 C   0  0  0  0  0  0  0  0  0  0  0  0
   -5.2967   24.7766  -29.1735 N   0  0  0  0  0  0  0  0  0  0  0  0
   -4.5888   25.8243  -28.5416 C   0  0  0  0  0  0  0  0  0  0  0  0
   -4.8725   25.8694  -27.0418 C   0  0  0  0  0  0  0  0  0  0  0  0
   -5.8565   25.0006  -30.4442 C   0  0  0  0  0  0  0  0  0  0  0  0
   -5.8509   23.6604  -31.1962 C   0  0  0  0  0  0  0  0  0  0  0  0
   -5.0704   25.9545  -31.3222 C   0  0  0  0  0  0  0  0  0  0  0  0
   -5.9460   21.1860  -15.9137 O   0  0  0  0  0  0  0  0  0  0  0  0
   -7.3912   12.9153  -16.5859 C   0  0  0  0  0  0  0  0  0  0  0  0
   -6.9104   14.3106  -16.3729 N   0  0  0  0  0  0  0  0  0  0  0  0
   -5.6373   14.5384  -15.8737 C   0  0  0  0  0  0  0  0  0  0  0  0
   -4.9304   13.4644  -15.6171 O   0  0  0  0  0  0  0  0  0  0  0  0
   -4.9973   15.7659  -15.6041 N   0  0  0  0  0  0  0  0  0  0  0  0
   -3.7058   15.8360  -15.0955 C   0  0  0  0  0  0  0  0  0  0  0  0
   -3.3299   17.1337  -14.9315 C   0  0  0  0  0  0  0  0  0  0  0  0
   -4.3888   17.9179  -15.3379 C   0  0  0  0  0  0  0  0  0  0  0  0
   -4.5529   19.2905  -15.3860 C   0  0  0  0  0  0  0  0  0  0  0  0
   -5.6993   19.8754  -15.8300 C   0  0  0  0  0  0  0  0  0  0  0  0
   -6.7483   18.9870  -16.2529 C   0  0  0  0  0  0  0  0  0  0  0  0
   -6.5407   17.6257  -16.1888 C   0  0  0  0  0  0  0  0  0  0  0  0
   -5.3717   17.0457  -15.7353 C   0  0  0  0  0  0  0  0  0  0  0  0
   -7.6081   14.9999  -16.6286 H   0  0  0  0  0  0  0  0  0  0  0  0
   -7.8575   19.5676  -16.6769 O   0  0  0  0  0  0  0  0  0  0  0  0
   -9.1509   19.4224  -16.8915 C   0  0  0  0  0  0  0  0  0  0  0  0
  -10.0084   20.6074  -16.5909 C   0  0  0  0  0  0  0  0  0  0  0  0
  -11.2923   20.6009  -17.0407 O   0  0  0  0  0  0  0  0  0  0  0  0
  -11.5100   21.5476  -18.0327 C   0  0  0  0  0  0  0  0  0  0  0  0
 27 28  1  0  0  0
 28 29  1  0  0  0
 29 30  2  0  0  0
 29 31  1  0  0  0
 31 32  1  0  0  0
 32 33  2  0  0  0
 33 34  1  0  0  0
 34 35  2  0  0  0
 35 36  1  0  0  0
 36 26  1  0  0  0
 26  1  1  0  0  0
  1  2  2  0  0  0
  2  3  1  0  0  0
  3  4  2  0  0  0
  4  5  1  0  0  0
  5  7  1  0  0  0
  7  8  1  0  0  0
  8  9  2  0  0  0
  8 11  1  0  0  0
 11 12  2  0  0  0
 12 13  1  0  0  0
 13 14  2  0  0  0
 14 15  1  0  0  0
 15 16  2  0  0  0
 14 17  1  0  0  0
 17 18  1  0  0  0
 18 19  1  0  0  0
 19 20  1  0  0  0
 20 21  1  0  0  0
 21 22  1  0  0  0
 20 23  1  0  0  0
 23 24  1  0  0  0
 23 25  1  0  0  0
  5  6  2  0  0  0
 36 37  2  0  0  0
 37 41  1  0  0  0
 41 42  1  0  0  0
 42 43  1  0  0  0
 43 44  1  0  0  0
 44 45  1  0  0  0
 37 38  1  0  0  0
 38 39  2  0  0  0
 39 31  1  0  0  0
 39 34  1  0  0  0
  6  1  1  0  0  0
 16 11  1  0  0  0
 22 17  1  0  0  0
 28 40  1  0  0  0
  7 10  1  0  0  0
M  END
> <minimizedAffinity>
-6.59377

> <CNNscore>
0.2085319757

> <CNNaffinity>
6.4148740768

> <CNN_VS>
1.3377063274

> <CNNaffinity_variance>
0.9506556392

$$$$
[H]c1nc(N([H])C(=O)c2c([H])c([H])c(C3([H])C([H])([H])C([H])([H])N(C([H])(C([H])([H])[H])C([H])([H])[H])C([H])([H])C3([H])[H])c([H])c2[H])c([H])c(Oc2c(OC([H])([H])C([H])([H])OC([H])([H])[H])c([H])c3c(c2[H])c([H])c([H])n3C(=O)N([H])C([H])([H])[H])c1[H]


 45 49  0  0  0  0  0  0  0  0999 V2000
   -6.9197   21.8314  -21.6490 C   0  0  0  0  0  0  0  0  0  0  0  0
   -8.2551   21.7494  -21.1656 C   0  0  0  0  0  0  0  0  0  0  0  0
   -8.5336   21.5538  -19.8550 C   0  0  0  0  0  0  0  0  0  0  0  0
   -7.5424   21.4312  -18.9703 N   0  0  0  0  0  0  0  0  0  0  0  0
   -6.2111   21.4964  -19.3374 C   0  0  0  0  0  0  0  0  0  0  0  0
   -5.9486   21.6954  -20.6702 C   0  0  0  0  0  0  0  0  0  0  0  0
   -5.2684   21.3536  -18.3073 N   0  0  0  0  0  0  0  0  0  0  0  0
   -4.6315   22.4273  -17.6561 C   0  0  0  0  0  0  0  0  0  0  0  0
   -4.7841   23.6494  -17.8690 O   0  0  0  0  0  0  0  0  0  0  0  0
   -5.0090   20.3521  -17.9855 H   0  0  0  0  0  0  0  0  0  0  0  0
   -3.6409   22.1521  -16.5665 C   0  0  0  0  0  0  0  0  0  0  0  0
   -3.9544   22.3415  -15.2424 C   0  0  0  0  0  0  0  0  0  0  0  0
   -3.0243   22.0966  -14.2239 C   0  0  0  0  0  0  0  0  0  0  0  0
   -1.7568   21.6542  -14.5276 C   0  0  0  0  0  0  0  0  0  0  0  0
   -1.4558   21.4680  -15.8604 C   0  0  0  0  0  0  0  0  0  0  0  0
   -2.3697   21.7084  -16.8652 C   0  0  0  0  0  0  0  0  0  0  0  0
   -0.7398   21.3800  -13.4939 C   0  0  0  0  0  0  0  0  0  0  0  0
   -1.1859   21.8604  -12.1181 C   0  0  0  0  0  0  0  0  0  0  0  0
   -0.3350   21.0959  -11.0904 C   0  0  0  0  0  0  0  0  0  0  0  0
    0.9939   21.1038  -11.5653 N   0  0  0  0  0  0  0  0  0  0  0  0
    1.3735   22.1238  -12.4675 C   0  0  0  0  0  0  0  0  0  0  0  0
    0.5951   22.0327  -13.7782 C   0  0  0  0  0  0  0  0  0  0  0  0
    1.9838   20.4802  -10.7847 C   0  0  0  0  0  0  0  0  0  0  0  0
    3.3033   21.2313  -11.0224 C   0  0  0  0  0  0  0  0  0  0  0  0
    2.2709   19.0396  -11.1604 C   0  0  0  0  0  0  0  0  0  0  0  0
   -6.7651   22.0203  -22.9133 O   0  0  0  0  0  0  0  0  0  0  0  0
   -3.7805   25.5920  -29.9332 C   0  0  0  0  0  0  0  0  0  0  0  0
   -4.1015   24.8146  -28.7020 N   0  0  0  0  0  0  0  0  0  0  0  0
   -3.2268   23.8395  -28.2479 C   0  0  0  0  0  0  0  0  0  0  0  0
   -2.1443   23.6715  -28.9684 O   0  0  0  0  0  0  0  0  0  0  0  0
   -3.3405   23.0034  -27.1178 N   0  0  0  0  0  0  0  0  0  0  0  0
   -2.3741   22.0599  -26.7898 C   0  0  0  0  0  0  0  0  0  0  0  0
   -2.7268   21.3931  -25.6570 C   0  0  0  0  0  0  0  0  0  0  0  0
   -3.9369   21.9082  -25.2424 C   0  0  0  0  0  0  0  0  0  0  0  0
   -4.7452   21.6046  -24.1618 C   0  0  0  0  0  0  0  0  0  0  0  0
   -5.9240   22.2439  -23.9272 C   0  0  0  0  0  0  0  0  0  0  0  0
   -6.2964   23.2650  -24.8690 C   0  0  0  0  0  0  0  0  0  0  0  0
   -5.4597   23.5351  -25.9308 C   0  0  0  0  0  0  0  0  0  0  0  0
   -4.2659   22.8777  -26.1570 C   0  0  0  0  0  0  0  0  0  0  0  0
   -4.9863   25.0922  -28.2929 H   0  0  0  0  0  0  0  0  0  0  0  0
   -7.4453   23.8742  -24.6325 O   0  0  0  0  0  0  0  0  0  0  0  0
   -8.0283   24.9446  -24.1282 C   0  0  0  0  0  0  0  0  0  0  0  0
   -7.3447   25.5838  -22.9645 C   0  0  0  0  0  0  0  0  0  0  0  0
   -7.8164   25.3160  -21.7169 O   0  0  0  0  0  0  0  0  0  0  0  0
   -6.8354   25.4411  -20.7424 C   0  0  0  0  0  0  0  0  0  0  0  0
 27 28  1  0  0  0
 28 29  1  0  0  0
 29 30  2  0  0  0
 29 31  1  0  0  0
 31 32  1  0  0  0
 32 33  2  0  0  0
 33 34  1  0  0  0
 34 35  2  0  0  0
 35 36  1  0  0  0
 36 26  1  0  0  0
 26  1  1  0  0  0
  1  2  2  0  0  0
  2  3  1  0  0  0
  3  4  2  0  0  0
  4  5  1  0  0  0
  5  7  1  0  0  0
  7  8  1  0  0  0
  8  9  2  0  0  0
  8 11  1  0  0  0
 11 12  2  0  0  0
 12 13  1  0  0  0
 13 14  2  0  0  0
 14 15  1  0  0  0
 15 16  2  0  0  0
 14 17  1  0  0  0
 17 18  1  0  0  0
 18 19  1  0  0  0
 19 20  1  0  0  0
 20 21  1  0  0  0
 21 22  1  0  0  0
 20 23  1  0  0  0
 23 24  1  0  0  0
 23 25  1  0  0  0
  5  6  2  0  0  0
 36 37  2  0  0  0
 37 41  1  0  0  0
 41 42  1  0  0  0
 42 43  1  0  0  0
 43 44  1  0  0  0
 44 45  1  0  0  0
 37 38  1  0  0  0
 38 39  2  0  0  0
 39 31  1  0  0  0
 39 34  1  0  0  0
  6  1  1  0  0  0
 16 11  1  0  0  0
 22 17  1  0  0  0
 28 40  1  0  0  0
  7 10  1  0  0  0
M  END
> <minimizedAffinity>
-7.12362

> <CNNscore>
0.1693906337

> <CNNaffinity>
5.8838319778

> <CNN_VS>
0.9966660142

> <CNNaffinity_variance>
0.1115857586

$$$$
[H]c1nc(N([H])C(=O)c2c([H])c([H])c(C3([H])C([H])([H])C([H])([H])N(C([H])(C([H])([H])[H])C([H])([H])[H])C([H])([H])C3([H])[H])c([H])c2[H])c([H])c(Oc2c(OC([H])([H])C([H])([H])OC([H])([H])[H])c([H])c3c(c2[H])c([H])c([H])n3C(=O)N([H])C([H])([H])[H])c1[H]


 45 49  0  0  0  0  0  0  0  0999 V2000
   -2.1792   22.8298  -20.2172 C   0  0  0  0  0  0  0  0  0  0  0  0
   -1.1205   22.9236  -19.2717 C   0  0  0  0  0  0  0  0  0  0  0  0
   -1.2311   22.4240  -18.0181 C   0  0  0  0  0  0  0  0  0  0  0  0
   -2.3574   21.8208  -17.6340 N   0  0  0  0  0  0  0  0  0  0  0  0
   -3.4441   21.6777  -18.4765 C   0  0  0  0  0  0  0  0  0  0  0  0
   -3.3131   22.1903  -19.7434 C   0  0  0  0  0  0  0  0  0  0  0  0
   -4.5665   21.0217  -17.9472 N   0  0  0  0  0  0  0  0  0  0  0  0
   -4.7366   19.6241  -17.9280 C   0  0  0  0  0  0  0  0  0  0  0  0
   -3.9522   18.7526  -18.3607 O   0  0  0  0  0  0  0  0  0  0  0  0
   -5.3594   21.6253  -17.5220 H   0  0  0  0  0  0  0  0  0  0  0  0
   -5.9795   19.0359  -17.3335 C   0  0  0  0  0  0  0  0  0  0  0  0
   -6.1992   19.0347  -15.9774 C   0  0  0  0  0  0  0  0  0  0  0  0
   -7.3553   18.4733  -15.4199 C   0  0  0  0  0  0  0  0  0  0  0  0
   -8.3125   17.9015  -16.2269 C   0  0  0  0  0  0  0  0  0  0  0  0
   -8.0794   17.9099  -17.5860 C   0  0  0  0  0  0  0  0  0  0  0  0
   -6.9420   18.4620  -18.1374 C   0  0  0  0  0  0  0  0  0  0  0  0
   -9.5483   17.2976  -15.6918 C   0  0  0  0  0  0  0  0  0  0  0  0
  -10.4730   16.8183  -16.8044 C   0  0  0  0  0  0  0  0  0  0  0  0
  -11.4262   15.7922  -16.1697 C   0  0  0  0  0  0  0  0  0  0  0  0
  -11.8473   16.3274  -14.9338 N   0  0  0  0  0  0  0  0  0  0  0  0
  -11.7882   17.7290  -14.7593 C   0  0  0  0  0  0  0  0  0  0  0  0
  -10.3519   18.2434  -14.8266 C   0  0  0  0  0  0  0  0  0  0  0  0
  -12.7530   15.5810  -14.1587 C   0  0  0  0  0  0  0  0  0  0  0  0
  -12.6865   16.1196  -12.7209 C   0  0  0  0  0  0  0  0  0  0  0  0
  -12.4239   14.1051  -14.0479 C   0  0  0  0  0  0  0  0  0  0  0  0
   -1.9703   23.3366  -21.3824 O   0  0  0  0  0  0  0  0  0  0  0  0
   -5.5789   23.7862  -28.9798 C   0  0  0  0  0  0  0  0  0  0  0  0
   -4.7432   23.6057  -27.7582 N   0  0  0  0  0  0  0  0  0  0  0  0
   -3.4620   23.0865  -27.8631 C   0  0  0  0  0  0  0  0  0  0  0  0
   -3.0734   22.7820  -29.0778 O   0  0  0  0  0  0  0  0  0  0  0  0
   -2.5188   22.8409  -26.8438 N   0  0  0  0  0  0  0  0  0  0  0  0
   -1.2624   22.3070  -27.1051 C   0  0  0  0  0  0  0  0  0  0  0  0
   -0.5534   22.1748  -25.9511 C   0  0  0  0  0  0  0  0  0  0  0  0
   -1.3571   22.6277  -24.9261 C   0  0  0  0  0  0  0  0  0  0  0  0
   -1.1452   22.7214  -23.5625 C   0  0  0  0  0  0  0  0  0  0  0  0
   -2.0864   23.2076  -22.7073 C   0  0  0  0  0  0  0  0  0  0  0  0
   -3.3303   23.6255  -23.2958 C   0  0  0  0  0  0  0  0  0  0  0  0
   -3.4974   23.5153  -24.6597 C   0  0  0  0  0  0  0  0  0  0  0  0
   -2.5333   23.0193  -25.5159 C   0  0  0  0  0  0  0  0  0  0  0  0
   -5.2264   23.8974  -26.9163 H   0  0  0  0  0  0  0  0  0  0  0  0
   -4.2371   24.0908  -22.4540 O   0  0  0  0  0  0  0  0  0  0  0  0
   -5.5070   24.0694  -22.0979 C   0  0  0  0  0  0  0  0  0  0  0  0
   -6.3630   25.1691  -22.6345 C   0  0  0  0  0  0  0  0  0  0  0  0
   -6.3625   25.3855  -23.9776 O   0  0  0  0  0  0  0  0  0  0  0  0
   -7.4147   24.7438  -24.6170 C   0  0  0  0  0  0  0  0  0  0  0  0
 27 28  1  0  0  0
 28 29  1  0  0  0
 29 30  2  0  0  0
 29 31  1  0  0  0
 31 32  1  0  0  0
 32 33  2  0  0  0
 33 34  1  0  0  0
 34 35  2  0  0  0
 35 36  1  0  0  0
 36 26  1  0  0  0
 26  1  1  0  0  0
  1  2  2  0  0  0
  2  3  1  0  0  0
  3  4  2  0  0  0
  4  5  1  0  0  0
  5  7  1  0  0  0
  7  8  1  0  0  0
  8  9  2  0  0  0
  8 11  1  0  0  0
 11 12  2  0  0  0
 12 13  1  0  0  0
 13 14  2  0  0  0
 14 15  1  0  0  0
 15 16  2  0  0  0
 14 17  1  0  0  0
 17 18  1  0  0  0
 18 19  1  0  0  0
 19 20  1  0  0  0
 20 21  1  0  0  0
 21 22  1  0  0  0
 20 23  1  0  0  0
 23 24  1  0  0  0
 23 25  1  0  0  0
  5  6  2  0  0  0
 36 37  2  0  0  0
 37 41  1  0  0  0
 41 42  1  0  0  0
 42 43  1  0  0  0
 43 44  1  0  0  0
 44 45  1  0  0  0
 37 38  1  0  0  0
 38 39  2  0  0  0
 39 31  1  0  0  0
 39 34  1  0  0  0
  6  1  1  0  0  0
 16 11  1  0  0  0
 22 17  1  0  0  0
 28 40  1  0  0  0
  7 10  1  0  0  0
M  END
> <minimizedAffinity>
-6.73066

> <CNNscore>
0.1443304121

> <CNNaffinity>
5.9144182205

> <CNN_VS>
0.8536304235

> <CNNaffinity_variance>
0.1122101992

$$$$
[H]c1nc(N([H])C(=O)c2c([H])c([H])c(C3([H])C([H])([H])C([H])([H])N(C([H])(C([H])([H])[H])C([H])([H])[H])C([H])([H])C3([H])[H])c([H])c2[H])c([H])c(Oc2c(OC([H])([H])C([H])([H])OC([H])([H])[H])c([H])c3c(c2[H])c([H])c([H])n3C(=O)N([H])C([H])([H])[H])c1[H]


 45 49  0  0  0  0  0  0  0  0999 V2000
   -8.4045   19.7577  -17.5148 C   0  0  0  0  0  0  0  0  0  0  0  0
   -8.3774   20.8128  -16.5611 C   0  0  0  0  0  0  0  0  0  0  0  0
   -8.1713   22.1016  -16.9217 C   0  0  0  0  0  0  0  0  0  0  0  0
   -7.9855   22.4169  -18.2048 N   0  0  0  0  0  0  0  0  0  0  0  0
   -7.9940   21.4664  -19.2086 C   0  0  0  0  0  0  0  0  0  0  0  0
   -8.2046   20.1656  -18.8236 C   0  0  0  0  0  0  0  0  0  0  0  0
   -7.7876   21.9330  -20.5163 N   0  0  0  0  0  0  0  0  0  0  0  0
   -6.5399   21.9486  -21.1687 C   0  0  0  0  0  0  0  0  0  0  0  0
   -5.4379   21.5661  -20.7201 O   0  0  0  0  0  0  0  0  0  0  0  0
   -8.6420   22.3073  -21.0675 H   0  0  0  0  0  0  0  0  0  0  0  0
   -6.4415   22.4700  -22.5696 C   0  0  0  0  0  0  0  0  0  0  0  0
   -7.1212   23.5949  -22.9696 C   0  0  0  0  0  0  0  0  0  0  0  0
   -7.0398   24.0756  -24.2830 C   0  0  0  0  0  0  0  0  0  0  0  0
   -6.2669   23.4248  -25.2177 C   0  0  0  0  0  0  0  0  0  0  0  0
   -5.5900   22.2975  -24.8027 C   0  0  0  0  0  0  0  0  0  0  0  0
   -5.6684   21.8221  -23.5102 C   0  0  0  0  0  0  0  0  0  0  0  0
   -6.1454   23.8891  -26.6134 C   0  0  0  0  0  0  0  0  0  0  0  0
   -4.8987   23.3315  -27.2899 C   0  0  0  0  0  0  0  0  0  0  0  0
   -5.1362   23.4425  -28.8051 C   0  0  0  0  0  0  0  0  0  0  0  0
   -5.6927   24.7170  -29.0447 N   0  0  0  0  0  0  0  0  0  0  0  0
   -5.4591   25.7361  -28.0933 C   0  0  0  0  0  0  0  0  0  0  0  0
   -6.0806   25.3952  -26.7407 C   0  0  0  0  0  0  0  0  0  0  0  0
   -5.9852   25.0771  -30.3724 C   0  0  0  0  0  0  0  0  0  0  0  0
   -5.8956   23.8040  -31.2286 C   0  0  0  0  0  0  0  0  0  0  0  0
   -5.0011   26.0476  -30.9958 C   0  0  0  0  0  0  0  0  0  0  0  0
   -8.6090   18.5681  -17.0663 O   0  0  0  0  0  0  0  0  0  0  0  0
  -11.2172   12.8087  -11.5011 C   0  0  0  0  0  0  0  0  0  0  0  0
  -10.9880   13.8071  -12.5846 N   0  0  0  0  0  0  0  0  0  0  0  0
  -12.0125   14.1286  -13.4615 C   0  0  0  0  0  0  0  0  0  0  0  0
  -13.1464   13.5018  -13.2600 O   0  0  0  0  0  0  0  0  0  0  0  0
  -12.0037   15.0371  -14.5402 N   0  0  0  0  0  0  0  0  0  0  0  0
  -13.1189   15.2522  -15.3413 C   0  0  0  0  0  0  0  0  0  0  0  0
  -12.8423   16.1752  -16.3023 C   0  0  0  0  0  0  0  0  0  0  0  0
  -11.5318   16.5660  -16.1252 C   0  0  0  0  0  0  0  0  0  0  0  0
  -10.7398   17.4698  -16.8101 C   0  0  0  0  0  0  0  0  0  0  0  0
   -9.4453   17.7153  -16.4673 C   0  0  0  0  0  0  0  0  0  0  0  0
   -8.9309   16.9801  -15.3433 C   0  0  0  0  0  0  0  0  0  0  0  0
   -9.7563   16.0903  -14.6895 C   0  0  0  0  0  0  0  0  0  0  0  0
  -11.0685   15.8507  -15.0489 C   0  0  0  0  0  0  0  0  0  0  0  0
  -10.0435   14.1746  -12.5740 H   0  0  0  0  0  0  0  0  0  0  0  0
   -7.6716   17.2241  -15.0242 O   0  0  0  0  0  0  0  0  0  0  0  0
   -6.4186   16.8323  -15.1530 C   0  0  0  0  0  0  0  0  0  0  0  0
   -6.0896   16.0641  -16.3905 C   0  0  0  0  0  0  0  0  0  0  0  0
   -6.4559   14.7552  -16.4497 O   0  0  0  0  0  0  0  0  0  0  0  0
   -7.3353   14.4988  -17.4931 C   0  0  0  0  0  0  0  0  0  0  0  0
 27 28  1  0  0  0
 28 29  1  0  0  0
 29 30  2  0  0  0
 29 31  1  0  0  0
 31 32  1  0  0  0
 32 33  2  0  0  0
 33 34  1  0  0  0
 34 35  2  0  0  0
 35 36  1  0  0  0
 36 26  1  0  0  0
 26  1  1  0  0  0
  1  2  2  0  0  0
  2  3  1  0  0  0
  3  4  2  0  0  0
  4  5  1  0  0  0
  5  7  1  0  0  0
  7  8  1  0  0  0
  8  9  2  0  0  0
  8 11  1  0  0  0
 11 12  2  0  0  0
 12 13  1  0  0  0
 13 14  2  0  0  0
 14 15  1  0  0  0
 15 16  2  0  0  0
 14 17  1  0  0  0
 17 18  1  0  0  0
 18 19  1  0  0  0
 19 20  1  0  0  0
 20 21  1  0  0  0
 21 22  1  0  0  0
 20 23  1  0  0  0
 23 24  1  0  0  0
 23 25  1  0  0  0
  5  6  2  0  0  0
 36 37  2  0  0  0
 37 41  1  0  0  0
 41 42  1  0  0  0
 42 43  1  0  0  0
 43 44  1  0  0  0
 44 45  1  0  0  0
 37 38  1  0  0  0
 38 39  2  0  0  0
 39 31  1  0  0  0
 39 34  1  0  0  0
  6  1  1  0  0  0
 16 11  1  0  0  0
 22 17  1  0  0  0
 28 40  1  0  0  0
  7 10  1  0  0  0
M  END
> <minimizedAffinity>
-6.70076

> <CNNscore>
0.1263431609

> <CNNaffinity>
6.0214414597

> <CNN_VS>
0.7607679367

> <CNNaffinity_variance>
0.7331840396

$$$$
[H]c1nc(N([H])C(=O)c2c([H])c([H])c(C3([H])C([H])([H])C([H])([H])N(C([H])(C([H])([H])[H])C([H])([H])[H])C([H])([H])C3([H])[H])c([H])c2[H])c([H])c(Oc2c(OC([H])([H])C([H])([H])OC([H])([H])[H])c([H])c3c(c2[H])c([H])c([H])n3C(=O)N([H])C([H])([H])[H])c1[H]


 45 49  0  0  0  0  0  0  0  0999 V2000
   -7.4501   23.7949  -21.8866 C   0  0  0  0  0  0  0  0  0  0  0  0
   -7.1201   25.1259  -21.5083 C   0  0  0  0  0  0  0  0  0  0  0  0
   -7.2950   25.5773  -20.2438 C   0  0  0  0  0  0  0  0  0  0  0  0
   -7.7905   24.7681  -19.3058 N   0  0  0  0  0  0  0  0  0  0  0  0
   -8.1422   23.4575  -19.5704 C   0  0  0  0  0  0  0  0  0  0  0  0
   -7.9575   23.0179  -20.8578 C   0  0  0  0  0  0  0  0  0  0  0  0
   -8.6500   22.7144  -18.4932 N   0  0  0  0  0  0  0  0  0  0  0  0
   -8.0817   21.5195  -18.0119 C   0  0  0  0  0  0  0  0  0  0  0  0
   -7.0658   20.9299  -18.4389 O   0  0  0  0  0  0  0  0  0  0  0  0
   -9.5389   23.0796  -17.9928 H   0  0  0  0  0  0  0  0  0  0  0  0
   -8.7123   20.8126  -16.8514 C   0  0  0  0  0  0  0  0  0  0  0  0
   -8.7522   21.3763  -15.5991 C   0  0  0  0  0  0  0  0  0  0  0  0
   -9.3304   20.7102  -14.5107 C   0  0  0  0  0  0  0  0  0  0  0  0
   -9.8801   19.4585  -14.6702 C   0  0  0  0  0  0  0  0  0  0  0  0
   -9.8336   18.9049  -15.9323 C   0  0  0  0  0  0  0  0  0  0  0  0
   -9.2650   19.5584  -17.0056 C   0  0  0  0  0  0  0  0  0  0  0  0
  -10.5023   18.7141  -13.5580 C   0  0  0  0  0  0  0  0  0  0  0  0
   -9.9080   19.1064  -12.2106 C   0  0  0  0  0  0  0  0  0  0  0  0
  -10.9310   18.6866  -11.1421 C   0  0  0  0  0  0  0  0  0  0  0  0
  -11.3850   17.3960  -11.4881 N   0  0  0  0  0  0  0  0  0  0  0  0
  -10.5550   16.5936  -12.3038 C   0  0  0  0  0  0  0  0  0  0  0  0
  -10.3561   17.2136  -13.6851 C   0  0  0  0  0  0  0  0  0  0  0  0
  -12.3227   16.7719  -10.6458 C   0  0  0  0  0  0  0  0  0  0  0  0
  -12.4973   17.6627   -9.4058 C   0  0  0  0  0  0  0  0  0  0  0  0
  -11.8903   15.4212  -10.1095 C   0  0  0  0  0  0  0  0  0  0  0  0
   -7.2437   23.4668  -23.1145 O   0  0  0  0  0  0  0  0  0  0  0  0
    0.0828   22.3443  -27.1152 C   0  0  0  0  0  0  0  0  0  0  0  0
   -1.3059   22.5995  -26.6362 N   0  0  0  0  0  0  0  0  0  0  0  0
   -2.3021   22.9357  -27.5400 C   0  0  0  0  0  0  0  0  0  0  0  0
   -1.9266   23.0067  -28.7942 O   0  0  0  0  0  0  0  0  0  0  0  0
   -3.6635   23.2116  -27.2966 N   0  0  0  0  0  0  0  0  0  0  0  0
   -4.5496   23.5420  -28.3151 C   0  0  0  0  0  0  0  0  0  0  0  0
   -5.7952   23.7555  -27.8101 C   0  0  0  0  0  0  0  0  0  0  0  0
   -5.7197   23.5618  -26.4469 C   0  0  0  0  0  0  0  0  0  0  0  0
   -6.6754   23.6459  -25.4505 C   0  0  0  0  0  0  0  0  0  0  0  0
   -6.3892   23.4114  -24.1403 C   0  0  0  0  0  0  0  0  0  0  0  0
   -5.0266   23.0672  -23.8349 C   0  0  0  0  0  0  0  0  0  0  0  0
   -4.1076   22.9939  -24.8598 C   0  0  0  0  0  0  0  0  0  0  0  0
   -4.4121   23.2351  -26.1856 C   0  0  0  0  0  0  0  0  0  0  0  0
   -1.3899   22.4975  -25.6313 H   0  0  0  0  0  0  0  0  0  0  0  0
   -4.7613   22.8471  -22.5588 O   0  0  0  0  0  0  0  0  0  0  0  0
   -3.9277   23.0776  -21.5629 C   0  0  0  0  0  0  0  0  0  0  0  0
   -4.2914   22.4795  -20.2439 C   0  0  0  0  0  0  0  0  0  0  0  0
   -4.5703   23.3216  -19.2124 O   0  0  0  0  0  0  0  0  0  0  0  0
   -4.1238   22.8303  -17.9930 C   0  0  0  0  0  0  0  0  0  0  0  0
 27 28  1  0  0  0
 28 29  1  0  0  0
 29 30  2  0  0  0
 29 31  1  0  0  0
 31 32  1  0  0  0
 32 33  2  0  0  0
 33 34  1  0  0  0
 34 35  2  0  0  0
 35 36  1  0  0  0
 36 26  1  0  0  0
 26  1  1  0  0  0
  1  2  2  0  0  0
  2  3  1  0  0  0
  3  4  2  0  0  0
  4  5  1  0  0  0
  5  7  1  0  0  0
  7  8  1  0  0  0
  8  9  2  0  0  0
  8 11  1  0  0  0
 11 12  2  0  0  0
 12 13  1  0  0  0
 13 14  2  0  0  0
 14 15  1  0  0  0
 15 16  2  0  0  0
 14 17  1  0  0  0
 17 18  1  0  0  0
 18 19  1  0  0  0
 19 20  1  0  0  0
 20 21  1  0  0  0
 21 22  1  0  0  0
 20 23  1  0  0  0
 23 24  1  0  0  0
 23 25  1  0  0  0
  5  6  2  0  0  0
 36 37  2  0  0  0
 37 41  1  0  0  0
 41 42  1  0  0  0
 42 43  1  0  0  0
 43 44  1  0  0  0
 44 45  1  0  0  0
 37 38  1  0  0  0
 38 39  2  0  0  0
 39 31  1  0  0  0
 39 34  1  0  0  0
  6  1  1  0  0  0
 16 11  1  0  0  0
 22 17  1  0  0  0
 28 40  1  0  0  0
  7 10  1  0  0  0
M  END
> <minimizedAffinity>
-7.41097

> <CNNscore>
0.1225857362

> <CNNaffinity>
5.5350370407

> <CNN_VS>
0.6785165668

> <CNNaffinity_variance>
0.2529268563

$$$$
[H]c1nc(N([H])C(=O)c2c([H])c([H])c(C3([H])C([H])([H])C([H])([H])N(C([H])(C([H])([H])[H])C([H])([H])[H])C([H])([H])C3([H])[H])c([H])c2[H])c([H])c(Oc2c(OC([H])([H])C([H])([H])OC([H])([H])[H])c([H])c3c(c2[H])c([H])c([H])n3C(=O)N([H])C([H])([H])[H])c1[H]


 45 49  0  0  0  0  0  0  0  0999 V2000
   -0.1954   21.6860  -16.8112 C   0  0  0  0  0  0  0  0  0  0  0  0
    1.2195   21.8333  -16.7999 C   0  0  0  0  0  0  0  0  0  0  0  0
    1.9113   22.2070  -17.9024 C   0  0  0  0  0  0  0  0  0  0  0  0
    1.2689   22.4501  -19.0462 N   0  0  0  0  0  0  0  0  0  0  0  0
   -0.1040   22.3362  -19.1621 C   0  0  0  0  0  0  0  0  0  0  0  0
   -0.7881   21.9566  -18.0339 C   0  0  0  0  0  0  0  0  0  0  0  0
   -0.6533   22.6224  -20.4217 N   0  0  0  0  0  0  0  0  0  0  0  0
   -0.7280   21.7029  -21.4855 C   0  0  0  0  0  0  0  0  0  0  0  0
   -0.3353   20.5165  -21.4995 O   0  0  0  0  0  0  0  0  0  0  0  0
   -1.0494   23.6160  -20.5940 H   0  0  0  0  0  0  0  0  0  0  0  0
   -1.3391   22.1224  -22.7873 C   0  0  0  0  0  0  0  0  0  0  0  0
   -0.8561   21.6673  -23.9902 C   0  0  0  0  0  0  0  0  0  0  0  0
   -1.4189   22.0695  -25.2085 C   0  0  0  0  0  0  0  0  0  0  0  0
   -2.4835   22.9416  -25.2315 C   0  0  0  0  0  0  0  0  0  0  0  0
   -2.9583   23.3901  -24.0171 C   0  0  0  0  0  0  0  0  0  0  0  0
   -2.4061   22.9959  -22.8162 C   0  0  0  0  0  0  0  0  0  0  0  0
   -3.1141   23.3960  -26.4861 C   0  0  0  0  0  0  0  0  0  0  0  0
   -4.5931   23.0325  -26.5413 C   0  0  0  0  0  0  0  0  0  0  0  0
   -5.2331   23.9605  -27.5871 C   0  0  0  0  0  0  0  0  0  0  0  0
   -4.3611   23.9983  -28.6960 N   0  0  0  0  0  0  0  0  0  0  0  0
   -3.4666   22.9189  -28.8779 C   0  0  0  0  0  0  0  0  0  0  0  0
   -2.4700   22.8148  -27.7256 C   0  0  0  0  0  0  0  0  0  0  0  0
   -4.7343   24.7706  -29.8107 C   0  0  0  0  0  0  0  0  0  0  0  0
   -3.5804   25.7404  -30.1103 C   0  0  0  0  0  0  0  0  0  0  0  0
   -5.9492   25.6509  -29.5919 C   0  0  0  0  0  0  0  0  0  0  0  0
   -0.7556   21.3275  -15.7086 O   0  0  0  0  0  0  0  0  0  0  0  0
   -7.6408   17.6750  -12.5153 C   0  0  0  0  0  0  0  0  0  0  0  0
   -6.2969   18.1272  -12.9767 N   0  0  0  0  0  0  0  0  0  0  0  0
   -5.1730   17.3658  -12.6957 C   0  0  0  0  0  0  0  0  0  0  0  0
   -5.3913   16.2650  -12.0176 O   0  0  0  0  0  0  0  0  0  0  0  0
   -3.8273   17.6114  -13.0388 N   0  0  0  0  0  0  0  0  0  0  0  0
   -2.7982   16.7492  -12.6793 C   0  0  0  0  0  0  0  0  0  0  0  0
   -1.6048   17.2181  -13.1353 C   0  0  0  0  0  0  0  0  0  0  0  0
   -1.8594   18.3995  -13.7995 C   0  0  0  0  0  0  0  0  0  0  0  0
   -1.0236   19.2875  -14.4524 C   0  0  0  0  0  0  0  0  0  0  0  0
   -1.4844   20.4174  -15.0561 C   0  0  0  0  0  0  0  0  0  0  0  0
   -2.9019   20.6492  -14.9825 C   0  0  0  0  0  0  0  0  0  0  0  0
   -3.6973   19.7368  -14.3226 C   0  0  0  0  0  0  0  0  0  0  0  0
   -3.2157   18.5941  -13.7138 C   0  0  0  0  0  0  0  0  0  0  0  0
   -6.3401   19.0052  -13.4813 H   0  0  0  0  0  0  0  0  0  0  0  0
   -3.3354   21.7520  -15.5682 O   0  0  0  0  0  0  0  0  0  0  0  0
   -4.0326   22.8623  -15.4225 C   0  0  0  0  0  0  0  0  0  0  0  0
   -4.6812   23.4026  -16.6543 C   0  0  0  0  0  0  0  0  0  0  0  0
   -5.7033   24.2879  -16.5056 O   0  0  0  0  0  0  0  0  0  0  0  0
   -6.0167   24.5149  -15.1723 C   0  0  0  0  0  0  0  0  0  0  0  0
 27 28  1  0  0  0
 28 29  1  0  0  0
 29 30  2  0  0  0
 29 31  1  0  0  0
 31 32  1  0  0  0
 32 33  2  0  0  0
 33 34  1  0  0  0
 34 35  2  0  0  0
 35 36  1  0  0  0
 36 26  1  0  0  0
 26  1  1  0  0  0
  1  2  2  0  0  0
  2  3  1  0  0  0
  3  4  2  0  0  0
  4  5  1  0  0  0
  5  7  1  0  0  0
  7  8  1  0  0  0
  8  9  2  0  0  0
  8 11  1  0  0  0
 11 12  2  0  0  0
 12 13  1  0  0  0
 13 14  2  0  0  0
 14 15  1  0  0  0
 15 16  2  0  0  0
 14 17  1  0  0  0
 17 18  1  0  0  0
 18 19  1  0  0  0
 19 20  1  0  0  0
 20 21  1  0  0  0
 21 22  1  0  0  0
 20 23  1  0  0  0
 23 24  1  0  0  0
 23 25  1  0  0  0
  5  6  2  0  0  0
 36 37  2  0  0  0
 37 41  1  0  0  0
 41 42  1  0  0  0
 42 43  1  0  0  0
 43 44  1  0  0  0
 44 45  1  0  0  0
 37 38  1  0  0  0
 38 39  2  0  0  0
 39 31  1  0  0  0
 39 34  1  0  0  0
  6  1  1  0  0  0
 16 11  1  0  0  0
 22 17  1  0  0  0
 28 40  1  0  0  0
  7 10  1  0  0  0
M  END
> <minimizedAffinity>
-6.57079

> <CNNscore>
0.1159158200

> <CNNaffinity>
6.0678076744

> <CNN_VS>
0.7033548951

> <CNNaffinity_variance>
0.4965735078

$$$$
[H]c1nc2c(C(=O)N([H])c3nc([H])c(C([H])([H])N4C([H])([H])C([H])([H])N(C([H])([H])[H])C([H])([H])C4([H])[H])c([H])c3[H])c([H])c([H])c(-c3c(Cl)c(OC([H])([H])[H])c([H])c(OC([H])([H])[H])c3Cl)c2nc1[H]


 40 44  0  0  0  0  0  0  0  0999 V2000
    0.4336   22.2918  -18.5594 C   0  0  0  0  0  0  0  0  0  0  0  0
   -0.7120   23.0663  -18.3526 C   0  0  0  0  0  0  0  0  0  0  0  0
   -1.5141   23.2235  -19.4625 C   0  0  0  0  0  0  0  0  0  0  0  0
   -1.2407   22.6742  -20.6889 C   0  0  0  0  0  0  0  0  0  0  0  0
   -0.0728   21.8899  -20.8536 C   0  0  0  0  0  0  0  0  0  0  0  0
    0.2890   21.3747  -22.0118 N   0  0  0  0  0  0  0  0  0  0  0  0
    1.4558   20.6710  -22.1846 C   0  0  0  0  0  0  0  0  0  0  0  0
    2.2579   20.5162  -21.0680 C   0  0  0  0  0  0  0  0  0  0  0  0
    1.9269   21.0089  -19.9242 N   0  0  0  0  0  0  0  0  0  0  0  0
    0.7362   21.7292  -19.7492 C   0  0  0  0  0  0  0  0  0  0  0  0
    3.2606   22.7973  -16.1796 C   0  0  0  0  0  0  0  0  0  0  0  0
    3.0653   21.6346  -15.3980 C   0  0  0  0  0  0  0  0  0  0  0  0
    2.0732   20.7410  -15.6232 C   0  0  0  0  0  0  0  0  0  0  0  0
    1.1904   20.9766  -16.6875 C   0  0  0  0  0  0  0  0  0  0  0  0
   -0.0819   19.8300  -16.9655 Cl  0  0  0  0  0  0  0  0  0  0  0  0
    1.3713   22.1196  -17.4629 C   0  0  0  0  0  0  0  0  0  0  0  0
    2.3603   23.0160  -17.2418 C   0  0  0  0  0  0  0  0  0  0  0  0
    2.5746   24.4834  -18.2260 Cl  0  0  0  0  0  0  0  0  0  0  0  0
    5.5995   23.4118  -16.2426 C   0  0  0  0  0  0  0  0  0  0  0  0
    4.2549   23.7043  -15.9793 O   0  0  0  0  0  0  0  0  0  0  0  0
    1.8916   19.6103  -14.8589 O   0  0  0  0  0  0  0  0  0  0  0  0
    2.7842   19.1962  -13.8550 C   0  0  0  0  0  0  0  0  0  0  0  0
   -1.9883   23.0087  -21.9155 C   0  0  0  0  0  0  0  0  0  0  0  0
   -1.5277   24.0857  -22.4830 O   0  0  0  0  0  0  0  0  0  0  0  0
   -3.0087   22.3918  -22.5587 N   0  0  0  0  0  0  0  0  0  0  0  0
   -3.7360   21.9451  -23.0079 H   0  0  0  0  0  0  0  0  0  0  0  0
   -4.1097   22.4401  -21.2716 C   0  0  0  0  0  0  0  0  0  0  0  0
   -4.3008   21.3723  -20.5760 C   0  0  0  0  0  0  0  0  0  0  0  0
   -5.2394   21.4565  -19.4637 C   0  0  0  0  0  0  0  0  0  0  0  0
   -5.8029   22.6813  -19.2974 C   0  0  0  0  0  0  0  0  0  0  0  0
   -5.5639   23.7992  -20.0773 C   0  0  0  0  0  0  0  0  0  0  0  0
   -4.6537   23.6112  -21.1139 N   0  0  0  0  0  0  0  0  0  0  0  0
   -6.7144   22.8938  -18.1356 C   0  0  0  0  0  0  0  0  0  0  0  0
   -6.0259   22.5029  -16.9045 N   0  0  0  0  0  0  0  0  0  0  0  0
   -5.0215   23.4909  -16.5426 C   0  0  0  0  0  0  0  0  0  0  0  0
   -5.6923   24.6776  -15.9107 C   0  0  0  0  0  0  0  0  0  0  0  0
   -5.9419   24.2950  -14.5223 N   0  0  0  0  0  0  0  0  0  0  0  0
   -6.7165   25.3066  -13.8893 C   0  0  0  0  0  0  0  0  0  0  0  0
   -6.5351   22.9976  -14.5354 C   0  0  0  0  0  0  0  0  0  0  0  0
   -7.0483   22.5470  -15.8635 C   0  0  0  0  0  0  0  0  0  0  0  0
 19 20  1  0  0  0
 20 11  1  0  0  0
 11 12  2  0  0  0
 12 13  1  0  0  0
 13 21  1  0  0  0
 21 22  1  0  0  0
 13 14  2  0  0  0
 14 15  1  0  0  0
 14 16  1  0  0  0
 16 17  2  0  0  0
 17 18  1  0  0  0
 16  1  1  0  0  0
  1  2  2  0  0  0
  2  3  1  0  0  0
  3  4  2  0  0  0
  4 23  1  0  0  0
 23 24  2  0  0  0
 23 25  1  0  0  0
 25 27  1  0  0  0
 27 28  2  0  0  0
 28 29  1  0  0  0
 29 30  2  0  0  0
 30 33  1  0  0  0
 33 34  1  0  0  0
 34 35  1  0  0  0
 35 36  1  0  0  0
 36 37  1  0  0  0
 37 38  1  0  0  0
 37 39  1  0  0  0
 39 40  1  0  0  0
 30 31  1  0  0  0
 31 32  2  0  0  0
  4  5  1  0  0  0
  5  6  2  0  0  0
  6  7  1  0  0  0
  7  8  2  0  0  0
  8  9  1  0  0  0
  9 10  2  0  0  0
 17 11  1  0  0  0
 10  1  1  0  0  0
 32 27  1  0  0  0
 10  5  1  0  0  0
 40 34  1  0  0  0
 25 26  1  0  0  0
M  END
> <minimizedAffinity>
-6.08715

> <CNNscore>
0.0790760890

> <CNNaffinity>
5.8544511795

> <CNN_VS>
0.4629471004

> <CNNaffinity_variance>
0.4479489326

$$$$
[H]c1nc2c(C(=O)N([H])c3nc([H])c(C([H])([H])N4C([H])([H])C([H])([H])N(C([H])([H])[H])C([H])([H])C4([H])[H])c([H])c3[H])c([H])c([H])c(-c3c(Cl)c(OC([H])([H])[H])c([H])c(OC([H])([H])[H])c3Cl)c2nc1[H]


 40 44  0  0  0  0  0  0  0  0999 V2000
   -0.8590   21.8902  -21.0631 C   0  0  0  0  0  0  0  0  0  0  0  0
   -0.9127   23.0831  -20.3359 C   0  0  0  0  0  0  0  0  0  0  0  0
   -0.2499   23.0563  -19.1277 C   0  0  0  0  0  0  0  0  0  0  0  0
    0.4224   21.9620  -18.6472 C   0  0  0  0  0  0  0  0  0  0  0  0
    0.4582   20.7750  -19.4193 C   0  0  0  0  0  0  0  0  0  0  0  0
    1.0347   19.6648  -19.0034 N   0  0  0  0  0  0  0  0  0  0  0  0
    1.0108   18.4956  -19.7236 C   0  0  0  0  0  0  0  0  0  0  0  0
    0.3441   18.5271  -20.9355 C   0  0  0  0  0  0  0  0  0  0  0  0
   -0.2268   19.5994  -21.3654 N   0  0  0  0  0  0  0  0  0  0  0  0
   -0.2037   20.7924  -20.6281 C   0  0  0  0  0  0  0  0  0  0  0  0
   -1.6703   21.8197  -24.7029 C   0  0  0  0  0  0  0  0  0  0  0  0
   -3.0711   21.6623  -24.5855 C   0  0  0  0  0  0  0  0  0  0  0  0
   -3.7165   21.5778  -23.3981 C   0  0  0  0  0  0  0  0  0  0  0  0
   -2.9595   21.6504  -22.2193 C   0  0  0  0  0  0  0  0  0  0  0  0
   -3.7934   21.5351  -20.7022 Cl  0  0  0  0  0  0  0  0  0  0  0  0
   -1.5788   21.8032  -22.3224 C   0  0  0  0  0  0  0  0  0  0  0  0
   -0.9289   21.8874  -23.5060 C   0  0  0  0  0  0  0  0  0  0  0  0
    0.8377   22.0648  -23.6300 Cl  0  0  0  0  0  0  0  0  0  0  0  0
   -1.5736   22.4930  -27.0244 C   0  0  0  0  0  0  0  0  0  0  0  0
   -1.0005   21.9166  -25.8833 O   0  0  0  0  0  0  0  0  0  0  0  0
   -5.0809   21.4269  -23.2927 O   0  0  0  0  0  0  0  0  0  0  0  0
   -6.0033   22.4443  -23.5928 C   0  0  0  0  0  0  0  0  0  0  0  0
    0.9547   21.8717  -17.2747 C   0  0  0  0  0  0  0  0  0  0  0  0
    2.2483   21.7267  -17.2671 O   0  0  0  0  0  0  0  0  0  0  0  0
    0.3620   21.9522  -16.0592 N   0  0  0  0  0  0  0  0  0  0  0  0
   -0.0705   22.0096  -15.1989 H   0  0  0  0  0  0  0  0  0  0  0  0
   -0.6995   20.6487  -16.2720 C   0  0  0  0  0  0  0  0  0  0  0  0
   -1.9024   20.8844  -16.6695 C   0  0  0  0  0  0  0  0  0  0  0  0
   -2.7814   19.7373  -16.8616 C   0  0  0  0  0  0  0  0  0  0  0  0
   -2.2035   18.5375  -16.5936 C   0  0  0  0  0  0  0  0  0  0  0  0
   -0.9027   18.3388  -16.1653 C   0  0  0  0  0  0  0  0  0  0  0  0
   -0.1490   19.4992  -16.0112 N   0  0  0  0  0  0  0  0  0  0  0  0
   -2.9936   17.2961  -16.8393 C   0  0  0  0  0  0  0  0  0  0  0  0
   -3.1921   17.1277  -18.2796 N   0  0  0  0  0  0  0  0  0  0  0  0
   -2.3012   16.1043  -18.8041 C   0  0  0  0  0  0  0  0  0  0  0  0
   -2.8473   14.7457  -18.4674 C   0  0  0  0  0  0  0  0  0  0  0  0
   -3.8819   14.4795  -19.4649 N   0  0  0  0  0  0  0  0  0  0  0  0
   -4.5604   13.2755  -19.1270 C   0  0  0  0  0  0  0  0  0  0  0  0
   -4.7094   15.6390  -19.5438 C   0  0  0  0  0  0  0  0  0  0  0  0
   -4.5500   16.6110  -18.4213 C   0  0  0  0  0  0  0  0  0  0  0  0
 19 20  1  0  0  0
 20 11  1  0  0  0
 11 12  2  0  0  0
 12 13  1  0  0  0
 13 21  1  0  0  0
 21 22  1  0  0  0
 13 14  2  0  0  0
 14 15  1  0  0  0
 14 16  1  0  0  0
 16 17  2  0  0  0
 17 18  1  0  0  0
 16  1  1  0  0  0
  1  2  2  0  0  0
  2  3  1  0  0  0
  3  4  2  0  0  0
  4 23  1  0  0  0
 23 24  2  0  0  0
 23 25  1  0  0  0
 25 27  1  0  0  0
 27 28  2  0  0  0
 28 29  1  0  0  0
 29 30  2  0  0  0
 30 33  1  0  0  0
 33 34  1  0  0  0
 34 35  1  0  0  0
 35 36  1  0  0  0
 36 37  1  0  0  0
 37 38  1  0  0  0
 37 39  1  0  0  0
 39 40  1  0  0  0
 30 31  1  0  0  0
 31 32  2  0  0  0
  4  5  1  0  0  0
  5  6  2  0  0  0
  6  7  1  0  0  0
  7  8  2  0  0  0
  8  9  1  0  0  0
  9 10  2  0  0  0
 17 11  1  0  0  0
 10  1  1  0  0  0
 32 27  1  0  0  0
 10  5  1  0  0  0
 40 34  1  0  0  0
 25 26  1  0  0  0
M  END
> <minimizedAffinity>
-6.07528

> <CNNscore>
0.0768025368

> <CNNaffinity>
6.0045967102

> <CNN_VS>
0.4611682594

> <CNNaffinity_variance>
0.2771157622

$$$$
[H]c1nc2c(C(=O)N([H])c3nc([H])c(C([H])([H])N4C([H])([H])C([H])([H])N(C([H])([H])[H])C([H])([H])C4([H])[H])c([H])c3[H])c([H])c([H])c(-c3c(Cl)c(OC([H])([H])[H])c([H])c(OC([H])([H])[H])c3Cl)c2nc1[H]


 40 44  0  0  0  0  0  0  0  0999 V2000
   -2.6848   20.9383  -17.6945 C   0  0  0  0  0  0  0  0  0  0  0  0
   -3.4847   20.6282  -18.7984 C   0  0  0  0  0  0  0  0  0  0  0  0
   -4.8379   20.8004  -18.6009 C   0  0  0  0  0  0  0  0  0  0  0  0
   -5.3902   21.2427  -17.4263 C   0  0  0  0  0  0  0  0  0  0  0  0
   -4.5431   21.5527  -16.3343 C   0  0  0  0  0  0  0  0  0  0  0  0
   -4.9989   21.9295  -15.1561 N   0  0  0  0  0  0  0  0  0  0  0  0
   -4.1801   22.1651  -14.0788 C   0  0  0  0  0  0  0  0  0  0  0  0
   -2.8227   21.9906  -14.2816 C   0  0  0  0  0  0  0  0  0  0  0  0
   -2.3513   21.6239  -15.4235 N   0  0  0  0  0  0  0  0  0  0  0  0
   -3.1885   21.3815  -16.5224 C   0  0  0  0  0  0  0  0  0  0  0  0
    0.7115   19.4085  -17.5047 C   0  0  0  0  0  0  0  0  0  0  0  0
    1.4492   20.5158  -17.9848 C   0  0  0  0  0  0  0  0  0  0  0  0
    0.8813   21.6882  -18.3545 C   0  0  0  0  0  0  0  0  0  0  0  0
   -0.5122   21.8158  -18.2571 C   0  0  0  0  0  0  0  0  0  0  0  0
   -1.2326   23.3190  -18.7387 Cl  0  0  0  0  0  0  0  0  0  0  0  0
   -1.2496   20.7312  -17.7877 C   0  0  0  0  0  0  0  0  0  0  0  0
   -0.6874   19.5575  -17.4177 C   0  0  0  0  0  0  0  0  0  0  0  0
   -1.6378   18.1699  -16.8355 Cl  0  0  0  0  0  0  0  0  0  0  0  0
    2.0595   18.1077  -15.9740 C   0  0  0  0  0  0  0  0  0  0  0  0
    1.2596   18.2246  -17.1183 O   0  0  0  0  0  0  0  0  0  0  0  0
    1.6071   22.7621  -18.8188 O   0  0  0  0  0  0  0  0  0  0  0  0
    2.9387   23.0210  -18.4501 C   0  0  0  0  0  0  0  0  0  0  0  0
   -6.8397   21.2328  -17.1539 C   0  0  0  0  0  0  0  0  0  0  0  0
   -7.3175   20.0223  -17.1262 O   0  0  0  0  0  0  0  0  0  0  0  0
   -7.7260   22.2240  -16.8943 N   0  0  0  0  0  0  0  0  0  0  0  0
   -8.3487   22.9376  -16.7118 H   0  0  0  0  0  0  0  0  0  0  0  0
   -7.4931   23.0785  -18.3389 C   0  0  0  0  0  0  0  0  0  0  0  0
   -7.9341   22.5726  -19.4390 C   0  0  0  0  0  0  0  0  0  0  0  0
   -7.7342   23.3450  -20.6591 C   0  0  0  0  0  0  0  0  0  0  0  0
   -7.0963   24.5300  -20.4739 C   0  0  0  0  0  0  0  0  0  0  0  0
   -6.6393   25.0277  -19.2662 C   0  0  0  0  0  0  0  0  0  0  0  0
   -6.8782   24.2114  -18.1639 N   0  0  0  0  0  0  0  0  0  0  0  0
   -6.9174   25.4332  -21.6477 C   0  0  0  0  0  0  0  0  0  0  0  0
   -6.4233   24.6548  -22.7845 N   0  0  0  0  0  0  0  0  0  0  0  0
   -7.0364   25.1094  -24.0229 C   0  0  0  0  0  0  0  0  0  0  0  0
   -6.3714   26.3792  -24.4733 C   0  0  0  0  0  0  0  0  0  0  0  0
   -5.1367   25.9629  -25.1355 N   0  0  0  0  0  0  0  0  0  0  0  0
   -4.3663   27.1147  -25.4580 C   0  0  0  0  0  0  0  0  0  0  0  0
   -4.4892   25.0210  -24.2818 C   0  0  0  0  0  0  0  0  0  0  0  0
   -5.0026   24.9761  -22.8801 C   0  0  0  0  0  0  0  0  0  0  0  0
 19 20  1  0  0  0
 20 11  1  0  0  0
 11 12  2  0  0  0
 12 13  1  0  0  0
 13 21  1  0  0  0
 21 22  1  0  0  0
 13 14  2  0  0  0
 14 15  1  0  0  0
 14 16  1  0  0  0
 16 17  2  0  0  0
 17 18  1  0  0  0
 16  1  1  0  0  0
  1  2  2  0  0  0
  2  3  1  0  0  0
  3  4  2  0  0  0
  4 23  1  0  0  0
 23 24  2  0  0  0
 23 25  1  0  0  0
 25 27  1  0  0  0
 27 28  2  0  0  0
 28 29  1  0  0  0
 29 30  2  0  0  0
 30 33  1  0  0  0
 33 34  1  0  0  0
 34 35  1  0  0  0
 35 36  1  0  0  0
 36 37  1  0  0  0
 37 38  1  0  0  0
 37 39  1  0  0  0
 39 40  1  0  0  0
 30 31  1  0  0  0
 31 32  2  0  0  0
  4  5  1  0  0  0
  5  6  2  0  0  0
  6  7  1  0  0  0
  7  8  2  0  0  0
  8  9  1  0  0  0
  9 10  2  0  0  0
 17 11  1  0  0  0
 10  1  1  0  0  0
 32 27  1  0  0  0
 10  5  1  0  0  0
 40 34  1  0  0  0
 25 26  1  0  0  0
M  END
> <minimizedAffinity>
-5.81033

> <CNNscore>
0.0691853836

> <CNNaffinity>
6.1928014755

> <CNN_VS>
0.4284513593

> <CNNaffinity_variance>
0.1008923054

$$$$
[H]c1nc2c(C(=O)N([H])c3nc([H])c(C([H])([H])N4C([H])([H])C([H])([H])N(C([H])([H])[H])C([H])([H])C4([H])[H])c([H])c3[H])c([H])c([H])c(-c3c(Cl)c(OC([H])([H])[H])c([H])c(OC([H])([H])[H])c3Cl)c2nc1[H]


 40 44  0  0  0  0  0  0  0  0999 V2000
   -4.6929   23.4864  -24.2402 C   0  0  0  0  0  0  0  0  0  0  0  0
   -5.5856   22.5953  -23.6368 C   0  0  0  0  0  0  0  0  0  0  0  0
   -6.8179   23.1295  -23.3271 C   0  0  0  0  0  0  0  0  0  0  0  0
   -7.1747   24.4292  -23.5800 C   0  0  0  0  0  0  0  0  0  0  0  0
   -6.2424   25.2970  -24.1995 C   0  0  0  0  0  0  0  0  0  0  0  0
   -6.4883   26.5723  -24.4252 N   0  0  0  0  0  0  0  0  0  0  0  0
   -5.5594   27.4282  -24.9648 C   0  0  0  0  0  0  0  0  0  0  0  0
   -4.3239   26.8878  -25.2736 C   0  0  0  0  0  0  0  0  0  0  0  0
   -4.0582   25.6444  -25.0640 N   0  0  0  0  0  0  0  0  0  0  0  0
   -5.0067   24.7717  -24.5110 C   0  0  0  0  0  0  0  0  0  0  0  0
   -1.6660   22.3083  -26.0736 C   0  0  0  0  0  0  0  0  0  0  0  0
   -0.8131   22.1497  -24.9564 C   0  0  0  0  0  0  0  0  0  0  0  0
   -1.1922   22.4140  -23.6836 C   0  0  0  0  0  0  0  0  0  0  0  0
   -2.4996   22.8687  -23.4564 C   0  0  0  0  0  0  0  0  0  0  0  0
   -2.9755   23.2109  -21.8233 Cl  0  0  0  0  0  0  0  0  0  0  0  0
   -3.3481   23.0308  -24.5491 C   0  0  0  0  0  0  0  0  0  0  0  0
   -2.9743   22.7690  -25.8228 C   0  0  0  0  0  0  0  0  0  0  0  0
   -4.0585   22.9955  -27.2159 Cl  0  0  0  0  0  0  0  0  0  0  0  0
   -0.3085   22.7573  -28.0249 C   0  0  0  0  0  0  0  0  0  0  0  0
   -1.3116   22.0404  -27.3597 O   0  0  0  0  0  0  0  0  0  0  0  0
   -0.3561   22.2547  -22.6013 O   0  0  0  0  0  0  0  0  0  0  0  0
   -0.0693   21.0101  -22.0142 C   0  0  0  0  0  0  0  0  0  0  0  0
   -8.4118   25.0479  -23.0681 C   0  0  0  0  0  0  0  0  0  0  0  0
   -8.5797   26.2506  -23.5367 O   0  0  0  0  0  0  0  0  0  0  0  0
   -9.3941   24.5873  -22.2568 N   0  0  0  0  0  0  0  0  0  0  0  0
  -10.0873   24.2498  -21.6772 H   0  0  0  0  0  0  0  0  0  0  0  0
   -8.4065   24.2604  -20.9193 C   0  0  0  0  0  0  0  0  0  0  0  0
   -7.7103   25.2183  -20.4111 C   0  0  0  0  0  0  0  0  0  0  0  0
   -6.8882   24.9052  -19.2486 C   0  0  0  0  0  0  0  0  0  0  0  0
   -6.9669   23.6126  -18.8383 C   0  0  0  0  0  0  0  0  0  0  0  0
   -7.7318   22.6187  -19.4234 C   0  0  0  0  0  0  0  0  0  0  0  0
   -8.4772   23.0218  -20.5280 N   0  0  0  0  0  0  0  0  0  0  0  0
   -6.2279   23.2105  -17.6063 C   0  0  0  0  0  0  0  0  0  0  0  0
   -4.8284   23.6215  -17.7274 N   0  0  0  0  0  0  0  0  0  0  0  0
   -4.2025   23.7037  -16.4168 C   0  0  0  0  0  0  0  0  0  0  0  0
   -3.8607   22.3211  -15.9384 C   0  0  0  0  0  0  0  0  0  0  0  0
   -2.6106   21.9706  -16.6096 N   0  0  0  0  0  0  0  0  0  0  0  0
   -2.2942   20.6117  -16.3317 C   0  0  0  0  0  0  0  0  0  0  0  0
   -2.7638   22.2859  -17.9925 C   0  0  0  0  0  0  0  0  0  0  0  0
   -4.1686   22.5296  -18.4368 C   0  0  0  0  0  0  0  0  0  0  0  0
 19 20  1  0  0  0
 20 11  1  0  0  0
 11 12  2  0  0  0
 12 13  1  0  0  0
 13 21  1  0  0  0
 21 22  1  0  0  0
 13 14  2  0  0  0
 14 15  1  0  0  0
 14 16  1  0  0  0
 16 17  2  0  0  0
 17 18  1  0  0  0
 16  1  1  0  0  0
  1  2  2  0  0  0
  2  3  1  0  0  0
  3  4  2  0  0  0
  4 23  1  0  0  0
 23 24  2  0  0  0
 23 25  1  0  0  0
 25 27  1  0  0  0
 27 28  2  0  0  0
 28 29  1  0  0  0
 29 30  2  0  0  0
 30 33  1  0  0  0
 33 34  1  0  0  0
 34 35  1  0  0  0
 35 36  1  0  0  0
 36 37  1  0  0  0
 37 38  1  0  0  0
 37 39  1  0  0  0
 39 40  1  0  0  0
 30 31  1  0  0  0
 31 32  2  0  0  0
  4  5  1  0  0  0
  5  6  2  0  0  0
  6  7  1  0  0  0
  7  8  2  0  0  0
  8  9  1  0  0  0
  9 10  2  0  0  0
 17 11  1  0  0  0
 10  1  1  0  0  0
 32 27  1  0  0  0
 10  5  1  0  0  0
 40 34  1  0  0  0
 25 26  1  0  0  0
M  END
> <minimizedAffinity>
-8.54458

> <CNNscore>
0.0686870292

> <CNNaffinity>
6.5906615257

> <CNN_VS>
0.4526929557

> <CNNaffinity_variance>
0.4307076931

$$$$
[H]c1nc2c(C(=O)N([H])c3nc([H])c(C([H])([H])N4C([H])([H])C([H])([H])N(C([H])([H])[H])C([H])([H])C4([H])[H])c([H])c3[H])c([H])c([H])c(-c3c(Cl)c(OC([H])([H])[H])c([H])c(OC([H])([H])[H])c3Cl)c2nc1[H]


 40 44  0  0  0  0  0  0  0  0999 V2000
   -3.2098   23.4929  -23.8784 C   0  0  0  0  0  0  0  0  0  0  0  0
   -3.2161   24.8370  -23.4933 C   0  0  0  0  0  0  0  0  0  0  0  0
   -4.4429   25.3191  -23.0902 C   0  0  0  0  0  0  0  0  0  0  0  0
   -5.5879   24.5653  -23.0547 C   0  0  0  0  0  0  0  0  0  0  0  0
   -5.5361   23.2052  -23.4466 C   0  0  0  0  0  0  0  0  0  0  0  0
   -6.6015   22.4303  -23.4938 N   0  0  0  0  0  0  0  0  0  0  0  0
   -6.5613   21.1311  -23.9377 C   0  0  0  0  0  0  0  0  0  0  0  0
   -5.3280   20.6517  -24.3417 C   0  0  0  0  0  0  0  0  0  0  0  0
   -4.2711   21.3880  -24.3046 N   0  0  0  0  0  0  0  0  0  0  0  0
   -4.3136   22.7153  -23.8531 C   0  0  0  0  0  0  0  0  0  0  0  0
   -0.5395   22.2031  -26.1406 C   0  0  0  0  0  0  0  0  0  0  0  0
    0.3644   21.7675  -25.1436 C   0  0  0  0  0  0  0  0  0  0  0  0
    0.1276   21.8888  -23.8159 C   0  0  0  0  0  0  0  0  0  0  0  0
   -1.0773   22.4765  -23.4029 C   0  0  0  0  0  0  0  0  0  0  0  0
   -1.3703   22.6338  -21.7000 Cl  0  0  0  0  0  0  0  0  0  0  0  0
   -1.9745   22.9114  -24.3757 C   0  0  0  0  0  0  0  0  0  0  0  0
   -1.7425   22.7934  -25.7034 C   0  0  0  0  0  0  0  0  0  0  0  0
   -2.8859   23.3675  -26.9406 Cl  0  0  0  0  0  0  0  0  0  0  0  0
    0.3006   23.0847  -28.2308 C   0  0  0  0  0  0  0  0  0  0  0  0
   -0.3287   22.0836  -27.4795 O   0  0  0  0  0  0  0  0  0  0  0  0
    1.0120   21.4599  -22.8519 O   0  0  0  0  0  0  0  0  0  0  0  0
    2.3328   21.0643  -23.1261 C   0  0  0  0  0  0  0  0  0  0  0  0
   -6.9287   25.1325  -22.8183 C   0  0  0  0  0  0  0  0  0  0  0  0
   -7.0642   26.3005  -23.3767 O   0  0  0  0  0  0  0  0  0  0  0  0
   -8.0228   24.6521  -22.1800 N   0  0  0  0  0  0  0  0  0  0  0  0
   -8.7956   24.3010  -21.7219 H   0  0  0  0  0  0  0  0  0  0  0  0
   -7.2915   24.4459  -20.6655 C   0  0  0  0  0  0  0  0  0  0  0  0
   -6.8807   25.4866  -20.0261 C   0  0  0  0  0  0  0  0  0  0  0  0
   -6.2753   25.2730  -18.7172 C   0  0  0  0  0  0  0  0  0  0  0  0
   -6.2244   23.9722  -18.3289 C   0  0  0  0  0  0  0  0  0  0  0  0
   -6.6798   22.8874  -19.0576 C   0  0  0  0  0  0  0  0  0  0  0  0
   -7.2378   23.2003  -20.2942 N   0  0  0  0  0  0  0  0  0  0  0  0
   -5.6990   23.6553  -16.9691 C   0  0  0  0  0  0  0  0  0  0  0  0
   -6.6419   24.1436  -15.9617 N   0  0  0  0  0  0  0  0  0  0  0  0
   -7.0551   23.0633  -15.0794 C   0  0  0  0  0  0  0  0  0  0  0  0
   -5.9684   22.7925  -14.0777 C   0  0  0  0  0  0  0  0  0  0  0  0
   -6.1237   23.8135  -13.0434 N   0  0  0  0  0  0  0  0  0  0  0  0
   -5.0357   23.7257  -12.1308 C   0  0  0  0  0  0  0  0  0  0  0  0
   -6.2622   25.0719  -13.7010 C   0  0  0  0  0  0  0  0  0  0  0  0
   -5.8775   25.0806  -15.1440 C   0  0  0  0  0  0  0  0  0  0  0  0
 19 20  1  0  0  0
 20 11  1  0  0  0
 11 12  2  0  0  0
 12 13  1  0  0  0
 13 21  1  0  0  0
 21 22  1  0  0  0
 13 14  2  0  0  0
 14 15  1  0  0  0
 14 16  1  0  0  0
 16 17  2  0  0  0
 17 18  1  0  0  0
 16  1  1  0  0  0
  1  2  2  0  0  0
  2  3  1  0  0  0
  3  4  2  0  0  0
  4 23  1  0  0  0
 23 24  2  0  0  0
 23 25  1  0  0  0
 25 27  1  0  0  0
 27 28  2  0  0  0
 28 29  1  0  0  0
 29 30  2  0  0  0
 30 33  1  0  0  0
 33 34  1  0  0  0
 34 35  1  0  0  0
 35 36  1  0  0  0
 36 37  1  0  0  0
 37 38  1  0  0  0
 37 39  1  0  0  0
 39 40  1  0  0  0
 30 31  1  0  0  0
 31 32  2  0  0  0
  4  5  1  0  0  0
  5  6  2  0  0  0
  6  7  1  0  0  0
  7  8  2  0  0  0
  8  9  1  0  0  0
  9 10  2  0  0  0
 17 11  1  0  0  0
 10  1  1  0  0  0
 32 27  1  0  0  0
 10  5  1  0  0  0
 40 34  1  0  0  0
 25 26  1  0  0  0
M  END
> <minimizedAffinity>
-8.10591

> <CNNscore>
0.0684312955

> <CNNaffinity>
6.5844068527

> <CNN_VS>
0.4505794942

> <CNNaffinity_variance>
0.0346847847

$$$$
[H]c1nc2c(C(=O)N([H])c3nc([H])c(C([H])([H])N4C([H])([H])C([H])([H])N(C([H])([H])[H])C([H])([H])C4([H])[H])c([H])c3[H])c([H])c([H])c(-c3c(Cl)c(OC([H])([H])[H])c([H])c(OC([H])([H])[H])c3Cl)c2nc1[H]


 40 44  0  0  0  0  0  0  0  0999 V2000
   -6.5468   22.7125  -18.8674 C   0  0  0  0  0  0  0  0  0  0  0  0
   -5.7825   22.1321  -19.8843 C   0  0  0  0  0  0  0  0  0  0  0  0
   -4.4481   21.9636  -19.5827 C   0  0  0  0  0  0  0  0  0  0  0  0
   -3.8819   22.3235  -18.3868 C   0  0  0  0  0  0  0  0  0  0  0  0
   -4.6936   22.9020  -17.3805 C   0  0  0  0  0  0  0  0  0  0  0  0
   -4.2155   23.3254  -16.2273 N   0  0  0  0  0  0  0  0  0  0  0  0
   -4.9916   23.9468  -15.2797 C   0  0  0  0  0  0  0  0  0  0  0  0
   -6.3302   24.1142  -15.5869 C   0  0  0  0  0  0  0  0  0  0  0  0
   -6.8228   23.7087  -16.7064 N   0  0  0  0  0  0  0  0  0  0  0  0
   -6.0290   23.0760  -17.6744 C   0  0  0  0  0  0  0  0  0  0  0  0
   -9.7222   24.3603  -19.9222 C   0  0  0  0  0  0  0  0  0  0  0  0
  -10.6171   23.3631  -19.4690 C   0  0  0  0  0  0  0  0  0  0  0  0
  -10.2173   22.2203  -18.8624 C   0  0  0  0  0  0  0  0  0  0  0  0
   -8.8436   22.0108  -18.6706 C   0  0  0  0  0  0  0  0  0  0  0  0
   -8.3393   20.5412  -17.8982 Cl  0  0  0  0  0  0  0  0  0  0  0  0
   -7.9524   22.9849  -19.1148 C   0  0  0  0  0  0  0  0  0  0  0  0
   -8.3464   24.1279  -19.7221 C   0  0  0  0  0  0  0  0  0  0  0  0
   -7.2009   25.3600  -20.3029 Cl  0  0  0  0  0  0  0  0  0  0  0  0
  -10.6028   25.5554  -21.8323 C   0  0  0  0  0  0  0  0  0  0  0  0
  -10.0997   25.5201  -20.5253 O   0  0  0  0  0  0  0  0  0  0  0  0
  -11.0954   21.2556  -18.4221 O   0  0  0  0  0  0  0  0  0  0  0  0
  -11.9335   21.4156  -17.3051 C   0  0  0  0  0  0  0  0  0  0  0  0
   -2.4271   22.3285  -18.1439 C   0  0  0  0  0  0  0  0  0  0  0  0
   -1.7805   22.9347  -19.0971 O   0  0  0  0  0  0  0  0  0  0  0  0
   -1.6719   21.8665  -17.1184 N   0  0  0  0  0  0  0  0  0  0  0  0
   -1.1437   21.5327  -16.3837 H   0  0  0  0  0  0  0  0  0  0  0  0
   -2.1555   20.2466  -17.2330 C   0  0  0  0  0  0  0  0  0  0  0  0
   -3.0385   19.8010  -16.4068 C   0  0  0  0  0  0  0  0  0  0  0  0
   -3.4456   18.4083  -16.5482 C   0  0  0  0  0  0  0  0  0  0  0  0
   -2.8291   17.7442  -17.5601 C   0  0  0  0  0  0  0  0  0  0  0  0
   -1.8821   18.2711  -18.4208 C   0  0  0  0  0  0  0  0  0  0  0  0
   -1.5626   19.6079  -18.1987 N   0  0  0  0  0  0  0  0  0  0  0  0
   -3.2373   16.3370  -17.8410 C   0  0  0  0  0  0  0  0  0  0  0  0
   -3.8415   16.2665  -19.1722 N   0  0  0  0  0  0  0  0  0  0  0  0
   -3.4663   15.0303  -19.8411 C   0  0  0  0  0  0  0  0  0  0  0  0
   -4.2895   13.8975  -19.2965 C   0  0  0  0  0  0  0  0  0  0  0  0
   -5.5767   13.9809  -19.9839 N   0  0  0  0  0  0  0  0  0  0  0  0
   -6.4745   13.0357  -19.4142 C   0  0  0  0  0  0  0  0  0  0  0  0
   -6.0082   15.3393  -19.9221 C   0  0  0  0  0  0  0  0  0  0  0  0
   -5.2802   16.1930  -18.9365 C   0  0  0  0  0  0  0  0  0  0  0  0
 19 20  1  0  0  0
 20 11  1  0  0  0
 11 12  2  0  0  0
 12 13  1  0  0  0
 13 21  1  0  0  0
 21 22  1  0  0  0
 13 14  2  0  0  0
 14 15  1  0  0  0
 14 16  1  0  0  0
 16 17  2  0  0  0
 17 18  1  0  0  0
 16  1  1  0  0  0
  1  2  2  0  0  0
  2  3  1  0  0  0
  3  4  2  0  0  0
  4 23  1  0  0  0
 23 24  2  0  0  0
 23 25  1  0  0  0
 25 27  1  0  0  0
 27 28  2  0  0  0
 28 29  1  0  0  0
 29 30  2  0  0  0
 30 33  1  0  0  0
 33 34  1  0  0  0
 34 35  1  0  0  0
 35 36  1  0  0  0
 36 37  1  0  0  0
 37 38  1  0  0  0
 37 39  1  0  0  0
 39 40  1  0  0  0
 30 31  1  0  0  0
 31 32  2  0  0  0
  4  5  1  0  0  0
  5  6  2  0  0  0
  6  7  1  0  0  0
  7  8  2  0  0  0
  8  9  1  0  0  0
  9 10  2  0  0  0
 17 11  1  0  0  0
 10  1  1  0  0  0
 32 27  1  0  0  0
 10  5  1  0  0  0
 40 34  1  0  0  0
 25 26  1  0  0  0
M  END
> <minimizedAffinity>
-5.72797

> <CNNscore>
0.0644291118

> <CNNaffinity>
5.5068058968

> <CNN_VS>
0.3547986150

> <CNNaffinity_variance>
0.2770947516

$$$$
[H]c1nc2c(C(=O)N([H])c3nc([H])c(C([H])([H])N4C([H])([H])C([H])([H])N(C([H])([H])[H])C([H])([H])C4([H])[H])c([H])c3[H])c([H])c([H])c(-c3c(Cl)c(OC([H])([H])[H])c([H])c(OC([H])([H])[H])c3Cl)c2nc1[H]


 40 44  0  0  0  0  0  0  0  0999 V2000
   -3.1863   23.4387  -23.6661 C   0  0  0  0  0  0  0  0  0  0  0  0
   -3.2017   24.7758  -23.2578 C   0  0  0  0  0  0  0  0  0  0  0  0
   -4.4443   25.2630  -22.9138 C   0  0  0  0  0  0  0  0  0  0  0  0
   -5.5963   24.5201  -22.9546 C   0  0  0  0  0  0  0  0  0  0  0  0
   -5.5352   23.1666  -23.3674 C   0  0  0  0  0  0  0  0  0  0  0  0
   -6.6033   22.4033  -23.4868 N   0  0  0  0  0  0  0  0  0  0  0  0
   -6.5505   21.1117  -23.9512 C   0  0  0  0  0  0  0  0  0  0  0  0
   -5.3012   20.6272  -24.2956 C   0  0  0  0  0  0  0  0  0  0  0  0
   -4.2414   21.3522  -24.1875 N   0  0  0  0  0  0  0  0  0  0  0  0
   -4.2967   22.6717  -23.7152 C   0  0  0  0  0  0  0  0  0  0  0  0
    0.2212   21.9221  -23.6854 C   0  0  0  0  0  0  0  0  0  0  0  0
    0.3772   21.8155  -25.0872 C   0  0  0  0  0  0  0  0  0  0  0  0
   -0.5671   22.2058  -25.9758 C   0  0  0  0  0  0  0  0  0  0  0  0
   -1.7648   22.7458  -25.4843 C   0  0  0  0  0  0  0  0  0  0  0  0
   -2.9721   23.2377  -26.6293 Cl  0  0  0  0  0  0  0  0  0  0  0  0
   -1.9308   22.8538  -24.1055 C   0  0  0  0  0  0  0  0  0  0  0  0
   -0.9910   22.4646  -23.2133 C   0  0  0  0  0  0  0  0  0  0  0  0
   -1.2174   22.5894  -21.4524 Cl  0  0  0  0  0  0  0  0  0  0  0  0
    1.0463   20.3656  -22.0275 C   0  0  0  0  0  0  0  0  0  0  0  0
    1.1584   21.5462  -22.7735 O   0  0  0  0  0  0  0  0  0  0  0  0
   -0.4062   22.1005  -27.3391 O   0  0  0  0  0  0  0  0  0  0  0  0
    0.1863   23.0974  -28.1335 C   0  0  0  0  0  0  0  0  0  0  0  0
   -6.9429   25.0964  -22.7817 C   0  0  0  0  0  0  0  0  0  0  0  0
   -7.0326   26.2816  -23.3122 O   0  0  0  0  0  0  0  0  0  0  0  0
   -8.0782   24.6109  -22.2242 N   0  0  0  0  0  0  0  0  0  0  0  0
   -8.8806   24.2560  -21.8236 H   0  0  0  0  0  0  0  0  0  0  0  0
   -7.4411   24.3519  -20.6756 C   0  0  0  0  0  0  0  0  0  0  0  0
   -7.4921   23.1668  -20.1721 C   0  0  0  0  0  0  0  0  0  0  0  0
   -6.9158   22.9768  -18.8466 C   0  0  0  0  0  0  0  0  0  0  0  0
   -6.3827   24.1007  -18.3009 C   0  0  0  0  0  0  0  0  0  0  0  0
   -6.3558   25.3548  -18.8855 C   0  0  0  0  0  0  0  0  0  0  0  0
   -6.9342   25.4284  -20.1497 N   0  0  0  0  0  0  0  0  0  0  0  0
   -5.6938   23.9940  -16.9819 C   0  0  0  0  0  0  0  0  0  0  0  0
   -6.6529   24.2752  -15.9126 N   0  0  0  0  0  0  0  0  0  0  0  0
   -6.8423   23.1031  -15.0721 C   0  0  0  0  0  0  0  0  0  0  0  0
   -5.6785   22.9692  -14.1312 C   0  0  0  0  0  0  0  0  0  0  0  0
   -5.9461   23.9032  -13.0393 N   0  0  0  0  0  0  0  0  0  0  0  0
   -4.8151   23.9539  -12.1778 C   0  0  0  0  0  0  0  0  0  0  0  0
   -6.3183   25.1503  -13.6238 C   0  0  0  0  0  0  0  0  0  0  0  0
   -6.0110   25.2870  -15.0788 C   0  0  0  0  0  0  0  0  0  0  0  0
 19 20  1  0  0  0
 20 11  1  0  0  0
 11 12  2  0  0  0
 12 13  1  0  0  0
 13 21  1  0  0  0
 21 22  1  0  0  0
 13 14  2  0  0  0
 14 15  1  0  0  0
 14 16  1  0  0  0
 16 17  2  0  0  0
 17 18  1  0  0  0
 16  1  1  0  0  0
  1  2  2  0  0  0
  2  3  1  0  0  0
  3  4  2  0  0  0
  4 23  1  0  0  0
 23 24  2  0  0  0
 23 25  1  0  0  0
 25 27  1  0  0  0
 27 28  2  0  0  0
 28 29  1  0  0  0
 29 30  2  0  0  0
 30 33  1  0  0  0
 33 34  1  0  0  0
 34 35  1  0  0  0
 35 36  1  0  0  0
 36 37  1  0  0  0
 37 38  1  0  0  0
 37 39  1  0  0  0
 39 40  1  0  0  0
 30 31  1  0  0  0
 31 32  2  0  0  0
  4  5  1  0  0  0
  5  6  2  0  0  0
  6  7  1  0  0  0
  7  8  2  0  0  0
  8  9  1  0  0  0
  9 10  2  0  0  0
 17 11  1  0  0  0
 10  1  1  0  0  0
 32 27  1  0  0  0
 10  5  1  0  0  0
 40 34  1  0  0  0
 25 26  1  0  0  0
M  END
> <minimizedAffinity>
-7.80084

> <CNNscore>
0.0535836071

> <CNNaffinity>
6.5094094276

> <CNN_VS>
0.3487976491

> <CNNaffinity_variance>
0.0405830964

$$$$
[H]c1nc2c(C(=O)N([H])c3nc([H])c(C([H])([H])N4C([H])([H])C([H])([H])N(C([H])([H])[H])C([H])([H])C4([H])[H])c([H])c3[H])c([H])c([H])c(-c3c(Cl)c(OC([H])([H])[H])c([H])c(OC([H])([H])[H])c3Cl)c2nc1[H]


 40 44  0  0  0  0  0  0  0  0999 V2000
   -4.0730   23.7567  -23.9937 C   0  0  0  0  0  0  0  0  0  0  0  0
   -3.5080   24.7303  -23.1644 C   0  0  0  0  0  0  0  0  0  0  0  0
   -4.0618   24.8118  -21.9049 C   0  0  0  0  0  0  0  0  0  0  0  0
   -5.0865   24.0134  -21.4657 C   0  0  0  0  0  0  0  0  0  0  0  0
   -5.6256   23.0343  -22.3359 C   0  0  0  0  0  0  0  0  0  0  0  0
   -6.6465   22.2670  -22.0091 N   0  0  0  0  0  0  0  0  0  0  0  0
   -7.2110   21.3648  -22.8774 C   0  0  0  0  0  0  0  0  0  0  0  0
   -6.6521   21.2868  -24.1406 C   0  0  0  0  0  0  0  0  0  0  0  0
   -5.6534   22.0247  -24.4849 N   0  0  0  0  0  0  0  0  0  0  0  0
   -5.0790   22.9472  -23.5982 C   0  0  0  0  0  0  0  0  0  0  0  0
   -2.1250   22.7417  -27.0081 C   0  0  0  0  0  0  0  0  0  0  0  0
   -2.7946   23.5537  -27.9531 C   0  0  0  0  0  0  0  0  0  0  0  0
   -3.8210   24.3780  -27.6359 C   0  0  0  0  0  0  0  0  0  0  0  0
   -4.2455   24.4331  -26.3001 C   0  0  0  0  0  0  0  0  0  0  0  0
   -5.5653   25.4872  -25.9031 Cl  0  0  0  0  0  0  0  0  0  0  0  0
   -3.5952   23.6363  -25.3607 C   0  0  0  0  0  0  0  0  0  0  0  0
   -2.5698   22.8105  -25.6723 C   0  0  0  0  0  0  0  0  0  0  0  0
   -1.7552   21.7821  -24.4697 Cl  0  0  0  0  0  0  0  0  0  0  0  0
    0.2242   22.3834  -27.4605 C   0  0  0  0  0  0  0  0  0  0  0  0
   -1.0859   21.9134  -27.3004 O   0  0  0  0  0  0  0  0  0  0  0  0
   -4.4658   25.1669  -28.5619 O   0  0  0  0  0  0  0  0  0  0  0  0
   -3.9282   25.4908  -29.8196 C   0  0  0  0  0  0  0  0  0  0  0  0
   -5.8069   24.2371  -20.1983 C   0  0  0  0  0  0  0  0  0  0  0  0
   -6.0337   25.5015  -19.9886 O   0  0  0  0  0  0  0  0  0  0  0  0
   -6.2956   23.3862  -19.2643 N   0  0  0  0  0  0  0  0  0  0  0  0
   -6.6385   22.7715  -18.6048 H   0  0  0  0  0  0  0  0  0  0  0  0
   -4.8193   22.6494  -18.8786 C   0  0  0  0  0  0  0  0  0  0  0  0
   -3.9942   23.2739  -18.1106 C   0  0  0  0  0  0  0  0  0  0  0  0
   -2.7431   22.6010  -17.7834 C   0  0  0  0  0  0  0  0  0  0  0  0
   -2.6064   21.3699  -18.3412 C   0  0  0  0  0  0  0  0  0  0  0  0
   -3.5257   20.7433  -19.1642 C   0  0  0  0  0  0  0  0  0  0  0  0
   -4.6848   21.4723  -19.4158 N   0  0  0  0  0  0  0  0  0  0  0  0
   -1.3980   20.5641  -18.0004 C   0  0  0  0  0  0  0  0  0  0  0  0
   -1.7882   19.1662  -17.8106 N   0  0  0  0  0  0  0  0  0  0  0  0
   -0.8256   18.2750  -18.4394 C   0  0  0  0  0  0  0  0  0  0  0  0
    0.3924   18.1592  -17.5673 C   0  0  0  0  0  0  0  0  0  0  0  0
    0.0426   17.1910  -16.5298 N   0  0  0  0  0  0  0  0  0  0  0  0
    1.0889   17.1365  -15.5673 C   0  0  0  0  0  0  0  0  0  0  0  0
   -1.2357   17.5587  -16.0141 C   0  0  0  0  0  0  0  0  0  0  0  0
   -1.6938   18.9342  -16.3725 C   0  0  0  0  0  0  0  0  0  0  0  0
 19 20  1  0  0  0
 20 11  1  0  0  0
 11 12  2  0  0  0
 12 13  1  0  0  0
 13 21  1  0  0  0
 21 22  1  0  0  0
 13 14  2  0  0  0
 14 15  1  0  0  0
 14 16  1  0  0  0
 16 17  2  0  0  0
 17 18  1  0  0  0
 16  1  1  0  0  0
  1  2  2  0  0  0
  2  3  1  0  0  0
  3  4  2  0  0  0
  4 23  1  0  0  0
 23 24  2  0  0  0
 23 25  1  0  0  0
 25 27  1  0  0  0
 27 28  2  0  0  0
 28 29  1  0  0  0
 29 30  2  0  0  0
 30 33  1  0  0  0
 33 34  1  0  0  0
 34 35  1  0  0  0
 35 36  1  0  0  0
 36 37  1  0  0  0
 37 38  1  0  0  0
 37 39  1  0  0  0
 39 40  1  0  0  0
 30 31  1  0  0  0
 31 32  2  0  0  0
  4  5  1  0  0  0
  5  6  2  0  0  0
  6  7  1  0  0  0
  7  8  2  0  0  0
  8  9  1  0  0  0
  9 10  2  0  0  0
 17 11  1  0  0  0
 10  1  1  0  0  0
 32 27  1  0  0  0
 10  5  1  0  0  0
 40 34  1  0  0  0
 25 26  1  0  0  0
M  END
> <minimizedAffinity>
-7.08406

> <CNNscore>
0.0503397360

> <CNNaffinity>
6.6706571579

> <CNN_VS>
0.3357991278

> <CNNaffinity_variance>
0.0542267188

$$$$
[H]c1nc2c(C(=O)N([H])c3nc([H])c(C([H])([H])N4C([H])([H])C([H])([H])N(C([H])([H])[H])C([H])([H])C4([H])[H])c([H])c3[H])c([H])c([H])c(-c3c(Cl)c(OC([H])([H])[H])c([H])c(OC([H])([H])[H])c3Cl)c2nc1[H]


 40 44  0  0  0  0  0  0  0  0999 V2000
   -5.4361   22.5551  -20.8985 C   0  0  0  0  0  0  0  0  0  0  0  0
   -6.2197   21.6737  -20.1476 C   0  0  0  0  0  0  0  0  0  0  0  0
   -5.5346   20.9658  -19.1836 C   0  0  0  0  0  0  0  0  0  0  0  0
   -4.1894   21.0939  -18.9506 C   0  0  0  0  0  0  0  0  0  0  0  0
   -3.4334   22.0039  -19.7296 C   0  0  0  0  0  0  0  0  0  0  0  0
   -2.1286   22.1441  -19.6055 N   0  0  0  0  0  0  0  0  0  0  0  0
   -1.3872   22.9776  -20.4069 C   0  0  0  0  0  0  0  0  0  0  0  0
   -2.0790   23.6858  -21.3733 C   0  0  0  0  0  0  0  0  0  0  0  0
   -3.3543   23.5676  -21.5149 N   0  0  0  0  0  0  0  0  0  0  0  0
   -4.1103   22.7146  -20.6974 C   0  0  0  0  0  0  0  0  0  0  0  0
   -7.3782   25.1037  -22.8076 C   0  0  0  0  0  0  0  0  0  0  0  0
   -7.1926   24.5597  -24.1000 C   0  0  0  0  0  0  0  0  0  0  0  0
   -6.4757   23.4366  -24.3419 C   0  0  0  0  0  0  0  0  0  0  0  0
   -5.8848   22.7740  -23.2559 C   0  0  0  0  0  0  0  0  0  0  0  0
   -4.9628   21.3392  -23.5752 Cl  0  0  0  0  0  0  0  0  0  0  0  0
   -6.0589   23.3015  -21.9785 C   0  0  0  0  0  0  0  0  0  0  0  0
   -6.7733   24.4236  -21.7313 C   0  0  0  0  0  0  0  0  0  0  0  0
   -6.9767   25.1016  -20.0983 Cl  0  0  0  0  0  0  0  0  0  0  0  0
   -9.4704   26.1793  -22.2438 C   0  0  0  0  0  0  0  0  0  0  0  0
   -8.1014   26.2243  -22.5381 O   0  0  0  0  0  0  0  0  0  0  0  0
   -6.3018   22.9125  -25.6032 O   0  0  0  0  0  0  0  0  0  0  0  0
   -6.6327   23.5982  -26.7848 C   0  0  0  0  0  0  0  0  0  0  0  0
   -3.4278   20.1953  -18.0630 C   0  0  0  0  0  0  0  0  0  0  0  0
   -3.4739   18.9603  -18.4715 O   0  0  0  0  0  0  0  0  0  0  0  0
   -2.6787   20.4246  -16.9577 N   0  0  0  0  0  0  0  0  0  0  0  0
   -2.1488   20.5990  -16.1709 H   0  0  0  0  0  0  0  0  0  0  0  0
   -3.9107   21.1227  -16.0271 C   0  0  0  0  0  0  0  0  0  0  0  0
   -4.8047   20.3566  -15.5032 C   0  0  0  0  0  0  0  0  0  0  0  0
   -5.8374   20.9897  -14.6920 C   0  0  0  0  0  0  0  0  0  0  0  0
   -5.7190   22.3388  -14.5872 C   0  0  0  0  0  0  0  0  0  0  0  0
   -4.7369   23.1173  -15.1743 C   0  0  0  0  0  0  0  0  0  0  0  0
   -3.8015   22.4153  -15.9296 N   0  0  0  0  0  0  0  0  0  0  0  0
   -6.6781   23.0716  -13.7103 C   0  0  0  0  0  0  0  0  0  0  0  0
   -6.0906   24.3537  -13.3183 N   0  0  0  0  0  0  0  0  0  0  0  0
   -6.8129   25.4577  -13.9311 C   0  0  0  0  0  0  0  0  0  0  0  0
   -8.0910   25.6980  -13.1786 C   0  0  0  0  0  0  0  0  0  0  0  0
   -7.7142   26.4821  -12.0040 N   0  0  0  0  0  0  0  0  0  0  0  0
   -8.8449   26.6233  -11.1521 C   0  0  0  0  0  0  0  0  0  0  0  0
   -6.5838   25.8467  -11.4094 C   0  0  0  0  0  0  0  0  0  0  0  0
   -6.3168   24.4547  -11.8798 C   0  0  0  0  0  0  0  0  0  0  0  0
 19 20  1  0  0  0
 20 11  1  0  0  0
 11 12  2  0  0  0
 12 13  1  0  0  0
 13 21  1  0  0  0
 21 22  1  0  0  0
 13 14  2  0  0  0
 14 15  1  0  0  0
 14 16  1  0  0  0
 16 17  2  0  0  0
 17 18  1  0  0  0
 16  1  1  0  0  0
  1  2  2  0  0  0
  2  3  1  0  0  0
  3  4  2  0  0  0
  4 23  1  0  0  0
 23 24  2  0  0  0
 23 25  1  0  0  0
 25 27  1  0  0  0
 27 28  2  0  0  0
 28 29  1  0  0  0
 29 30  2  0  0  0
 30 33  1  0  0  0
 33 34  1  0  0  0
 34 35  1  0  0  0
 35 36  1  0  0  0
 36 37  1  0  0  0
 37 38  1  0  0  0
 37 39  1  0  0  0
 39 40  1  0  0  0
 30 31  1  0  0  0
 31 32  2  0  0  0
  4  5  1  0  0  0
  5  6  2  0  0  0
  6  7  1  0  0  0
  7  8  2  0  0  0
  8  9  1  0  0  0
  9 10  2  0  0  0
 17 11  1  0  0  0
 10  1  1  0  0  0
 32 27  1  0  0  0
 10  5  1  0  0  0
 40 34  1  0  0  0
 25 26  1  0  0  0
M  END
> <minimizedAffinity>
-6.56195

> <CNNscore>
0.0493593290

> <CNNaffinity>
5.9717283249

> <CNN_VS>
0.2947604954

> <CNNaffinity_variance>
0.1066833884

$$$$
[H]c1nc(N([H])[H])c2c(-c3sc4c(OC([H])([H])[H])c([H])c(C([H])([H])[H])c([H])c4c3[H])c(C([H])([H])N3C([H])([H])C(=O)N([H])C([H])([H])C3([H])[H])c(C([H])([H])N3C([H])([H])C([H])([H])N([H])C([H])([H])C3([H])[H])n2n1


 41 46  0  0  0  0  0  0  0  0999 V2000
   -2.1172   22.4974  -25.0729 C   0  0  0  0  0  0  0  0  0  0  0  0
   -3.4121   22.6096  -25.5839 C   0  0  0  0  0  0  0  0  0  0  0  0
   -3.2949   22.8606  -26.9389 C   0  0  0  0  0  0  0  0  0  0  0  0
   -1.9781   22.9041  -27.2655 N   0  0  0  0  0  0  0  0  0  0  0  0
   -1.4264   23.1164  -28.4268 N   0  0  0  0  0  0  0  0  0  0  0  0
   -0.1122   23.1410  -28.6047 C   0  0  0  0  0  0  0  0  0  0  0  0
    0.6545   22.9408  -27.5474 N   0  0  0  0  0  0  0  0  0  0  0  0
    0.1001   22.7163  -26.3186 C   0  0  0  0  0  0  0  0  0  0  0  0
    1.0241   22.5802  -25.2881 N   0  0  0  0  0  0  0  0  0  0  0  0
   -1.2620   22.6862  -26.1261 C   0  0  0  0  0  0  0  0  0  0  0  0
    1.1376   23.4064  -24.6310 H   0  0  0  0  0  0  0  0  0  0  0  0
    1.6168   21.7236  -25.1530 H   0  0  0  0  0  0  0  0  0  0  0  0
   -1.2994   22.0842  -19.6635 C   0  0  0  0  0  0  0  0  0  0  0  0
   -0.5774   21.1112  -19.0074 C   0  0  0  0  0  0  0  0  0  0  0  0
    0.0271   20.1369  -19.7664 C   0  0  0  0  0  0  0  0  0  0  0  0
    0.8278   19.0588  -19.0740 C   0  0  0  0  0  0  0  0  0  0  0  0
   -0.0938   20.1464  -21.1240 C   0  0  0  0  0  0  0  0  0  0  0  0
   -0.8196   21.1178  -21.8396 C   0  0  0  0  0  0  0  0  0  0  0  0
   -0.9983   21.2106  -23.1692 C   0  0  0  0  0  0  0  0  0  0  0  0
   -1.7542   22.2509  -23.6561 C   0  0  0  0  0  0  0  0  0  0  0  0
   -2.1789   23.0494  -22.2124 S   0  0  0  0  0  0  0  0  0  0  0  0
   -1.4092   22.0732  -21.0622 C   0  0  0  0  0  0  0  0  0  0  0  0
   -2.9198   22.8929  -18.0155 C   0  0  0  0  0  0  0  0  0  0  0  0
   -1.9498   23.1128  -19.0193 O   0  0  0  0  0  0  0  0  0  0  0  0
   -4.6023   22.5794  -24.7244 C   0  0  0  0  0  0  0  0  0  0  0  0
   -5.3498   23.8427  -24.8219 N   0  0  0  0  0  0  0  0  0  0  0  0
   -5.5971   24.3099  -23.4258 C   0  0  0  0  0  0  0  0  0  0  0  0
   -6.5010   25.4831  -23.3621 C   0  0  0  0  0  0  0  0  0  0  0  0
   -7.1126   25.7869  -24.6313 N   0  0  0  0  0  0  0  0  0  0  0  0
   -7.5468   24.6697  -25.4269 C   0  0  0  0  0  0  0  0  0  0  0  0
   -8.5523   24.7289  -26.1761 O   0  0  0  0  0  0  0  0  0  0  0  0
   -6.7293   23.4511  -25.3021 C   0  0  0  0  0  0  0  0  0  0  0  0
   -7.2710   26.7342  -25.0240 H   0  0  0  0  0  0  0  0  0  0  0  0
   -4.3865   23.0168  -27.9137 C   0  0  0  0  0  0  0  0  0  0  0  0
   -4.1307   24.1030  -28.8949 N   0  0  0  0  0  0  0  0  0  0  0  0
   -5.1975   23.8748  -29.9087 C   0  0  0  0  0  0  0  0  0  0  0  0
   -5.4456   25.1458  -30.7002 C   0  0  0  0  0  0  0  0  0  0  0  0
   -6.2531   26.0037  -29.8358 N   0  0  0  0  0  0  0  0  0  0  0  0
   -6.0058   25.6633  -28.4396 C   0  0  0  0  0  0  0  0  0  0  0  0
   -4.5514   25.3444  -28.2043 C   0  0  0  0  0  0  0  0  0  0  0  0
   -6.1035   27.0152  -30.0313 H   0  0  0  0  0  0  0  0  0  0  0  0
 23 24  1  0  0  0
 24 13  1  0  0  0
 13 14  2  0  0  0
 14 15  1  0  0  0
 15 16  1  0  0  0
 15 17  2  0  0  0
 17 18  1  0  0  0
 18 19  1  0  0  0
 19 20  2  0  0  0
 20 21  1  0  0  0
 21 22  1  0  0  0
 20  1  1  0  0  0
  1  2  1  0  0  0
  2 25  1  0  0  0
 25 26  1  0  0  0
 26 27  1  0  0  0
 27 28  1  0  0  0
 28 29  1  0  0  0
 29 30  1  0  0  0
 30 31  2  0  0  0
 30 32  1  0  0  0
  2  3  2  0  0  0
  3 34  1  0  0  0
 34 35  1  0  0  0
 35 36  1  0  0  0
 36 37  1  0  0  0
 37 38  1  0  0  0
 38 39  1  0  0  0
 39 40  1  0  0  0
  3  4  1  0  0  0
  4  5  1  0  0  0
  5  6  2  0  0  0
  6  7  1  0  0  0
  7  8  2  0  0  0
  8  9  1  0  0  0
  8 10  1  0  0  0
 22 13  1  0  0  0
 10  1  2  0  0  0
 22 18  2  0  0  0
 32 26  1  0  0  0
 40 35  1  0  0  0
 10  4  1  0  0  0
 29 33  1  0  0  0
 38 41  1  0  0  0
  9 11  1  0  0  0
  9 12  1  0  0  0
M  END
> <minimizedAffinity>
-10.42424

> <CNNscore>
0.9123186469

> <CNNaffinity>
8.1279582977

> <CNN_VS>
7.4152879715

> <CNNaffinity_variance>
0.0710831955

$$$$
[H]c1nc(N([H])[H])c2c(-c3sc4c(OC([H])([H])[H])c([H])c(C([H])([H])[H])c([H])c4c3[H])c(C([H])([H])N3C([H])([H])C(=O)N([H])C([H])([H])C3([H])[H])c(C([H])([H])N3C([H])([H])C([H])([H])N([H])C([H])([H])C3([H])[H])n2n1


 41 46  0  0  0  0  0  0  0  0999 V2000
   -1.9588   22.0488  -24.4186 C   0  0  0  0  0  0  0  0  0  0  0  0
   -3.2634   22.2400  -24.8790 C   0  0  0  0  0  0  0  0  0  0  0  0
   -3.1762   22.6048  -26.2102 C   0  0  0  0  0  0  0  0  0  0  0  0
   -1.8682   22.6411  -26.5711 N   0  0  0  0  0  0  0  0  0  0  0  0
   -1.3426   22.9387  -27.7258 N   0  0  0  0  0  0  0  0  0  0  0  0
   -0.0336   22.9433  -27.9402 C   0  0  0  0  0  0  0  0  0  0  0  0
    0.7556   22.6312  -26.9276 N   0  0  0  0  0  0  0  0  0  0  0  0
    0.2288   22.3156  -25.7067 C   0  0  0  0  0  0  0  0  0  0  0  0
    1.1765   22.0654  -24.7199 N   0  0  0  0  0  0  0  0  0  0  0  0
   -1.1277   22.3055  -25.4768 C   0  0  0  0  0  0  0  0  0  0  0  0
    1.3323   22.8279  -23.9977 H   0  0  0  0  0  0  0  0  0  0  0  0
    1.7472   21.1846  -24.6771 H   0  0  0  0  0  0  0  0  0  0  0  0
    0.1275   20.3906  -19.6230 C   0  0  0  0  0  0  0  0  0  0  0  0
   -0.3295   20.7162  -18.3645 C   0  0  0  0  0  0  0  0  0  0  0  0
   -1.4350   21.5285  -18.2718 C   0  0  0  0  0  0  0  0  0  0  0  0
   -1.9603   21.8995  -16.9046 C   0  0  0  0  0  0  0  0  0  0  0  0
   -2.0482   21.9897  -19.3983 C   0  0  0  0  0  0  0  0  0  0  0  0
   -1.6198   21.6854  -20.7046 C   0  0  0  0  0  0  0  0  0  0  0  0
   -2.1528   22.0911  -21.8706 C   0  0  0  0  0  0  0  0  0  0  0  0
   -1.5644   21.6702  -23.0399 C   0  0  0  0  0  0  0  0  0  0  0  0
   -0.2840   20.7215  -22.4378 S   0  0  0  0  0  0  0  0  0  0  0  0
   -0.5209   20.8774  -20.7681 C   0  0  0  0  0  0  0  0  0  0  0  0
    1.1381   18.1767  -19.8932 C   0  0  0  0  0  0  0  0  0  0  0  0
    1.2221   19.5867  -19.8500 O   0  0  0  0  0  0  0  0  0  0  0  0
   -4.4299   22.1672  -23.9900 C   0  0  0  0  0  0  0  0  0  0  0  0
   -4.9716   23.5094  -23.7274 N   0  0  0  0  0  0  0  0  0  0  0  0
   -5.0158   23.6773  -22.2446 C   0  0  0  0  0  0  0  0  0  0  0  0
   -5.7113   24.9176  -21.8254 C   0  0  0  0  0  0  0  0  0  0  0  0
   -6.3771   25.5814  -22.9178 N   0  0  0  0  0  0  0  0  0  0  0  0
   -7.0533   24.7433  -23.8717 C   0  0  0  0  0  0  0  0  0  0  0  0
   -8.0991   25.1071  -24.4632 O   0  0  0  0  0  0  0  0  0  0  0  0
   -6.4331   23.4284  -24.1071 C   0  0  0  0  0  0  0  0  0  0  0  0
   -6.4164   26.6055  -23.0798 H   0  0  0  0  0  0  0  0  0  0  0  0
   -4.2891   22.8747  -27.1348 C   0  0  0  0  0  0  0  0  0  0  0  0
   -4.0857   24.1101  -27.9350 N   0  0  0  0  0  0  0  0  0  0  0  0
   -5.0488   23.9261  -29.0560 C   0  0  0  0  0  0  0  0  0  0  0  0
   -5.3783   25.2670  -29.6861 C   0  0  0  0  0  0  0  0  0  0  0  0
   -6.3321   25.9087  -28.7842 N   0  0  0  0  0  0  0  0  0  0  0  0
   -6.1463   25.3977  -27.4311 C   0  0  0  0  0  0  0  0  0  0  0  0
   -4.6857   25.1924  -27.1203 C   0  0  0  0  0  0  0  0  0  0  0  0
   -6.2802   26.9476  -28.8277 H   0  0  0  0  0  0  0  0  0  0  0  0
 23 24  1  0  0  0
 24 13  1  0  0  0
 13 14  2  0  0  0
 14 15  1  0  0  0
 15 16  1  0  0  0
 15 17  2  0  0  0
 17 18  1  0  0  0
 18 19  1  0  0  0
 19 20  2  0  0  0
 20 21  1  0  0  0
 21 22  1  0  0  0
 20  1  1  0  0  0
  1  2  1  0  0  0
  2 25  1  0  0  0
 25 26  1  0  0  0
 26 27  1  0  0  0
 27 28  1  0  0  0
 28 29  1  0  0  0
 29 30  1  0  0  0
 30 31  2  0  0  0
 30 32  1  0  0  0
  2  3  2  0  0  0
  3 34  1  0  0  0
 34 35  1  0  0  0
 35 36  1  0  0  0
 36 37  1  0  0  0
 37 38  1  0  0  0
 38 39  1  0  0  0
 39 40  1  0  0  0
  3  4  1  0  0  0
  4  5  1  0  0  0
  5  6  2  0  0  0
  6  7  1  0  0  0
  7  8  2  0  0  0
  8  9  1  0  0  0
  8 10  1  0  0  0
 22 13  1  0  0  0
 10  1  2  0  0  0
 22 18  2  0  0  0
 32 26  1  0  0  0
 40 35  1  0  0  0
 10  4  1  0  0  0
 29 33  1  0  0  0
 38 41  1  0  0  0
  9 11  1  0  0  0
  9 12  1  0  0  0
M  END
> <minimizedAffinity>
-9.00606

> <CNNscore>
0.6789762974

> <CNNaffinity>
7.6033792496

> <CNN_VS>
5.1625142097

> <CNNaffinity_variance>
0.1158283576

$$$$
[H]c1nc(N([H])[H])c2c(-c3sc4c(OC([H])([H])[H])c([H])c(C([H])([H])[H])c([H])c4c3[H])c(C([H])([H])N3C([H])([H])C(=O)N([H])C([H])([H])C3([H])[H])c(C([H])([H])N3C([H])([H])C([H])([H])N([H])C([H])([H])C3([H])[H])n2n1


 41 46  0  0  0  0  0  0  0  0999 V2000
   -1.4862   21.5432  -23.0289 C   0  0  0  0  0  0  0  0  0  0  0  0
   -2.8780   21.6361  -23.0982 C   0  0  0  0  0  0  0  0  0  0  0  0
   -3.2022   21.9225  -24.4118 C   0  0  0  0  0  0  0  0  0  0  0  0
   -2.0587   22.0060  -25.1385 N   0  0  0  0  0  0  0  0  0  0  0  0
   -1.9086   22.2597  -26.4078 N   0  0  0  0  0  0  0  0  0  0  0  0
   -0.7200   22.3206  -26.9933 C   0  0  0  0  0  0  0  0  0  0  0  0
    0.3463   22.1137  -26.2411 N   0  0  0  0  0  0  0  0  0  0  0  0
    0.2155   21.8461  -24.9073 C   0  0  0  0  0  0  0  0  0  0  0  0
    1.4215   21.7077  -24.2286 N   0  0  0  0  0  0  0  0  0  0  0  0
   -1.0138   21.7781  -24.2930 C   0  0  0  0  0  0  0  0  0  0  0  0
    1.7255   22.5204  -23.6166 H   0  0  0  0  0  0  0  0  0  0  0  0
    2.0395   20.8628  -24.3152 H   0  0  0  0  0  0  0  0  0  0  0  0
    1.6112   19.8740  -18.8193 C   0  0  0  0  0  0  0  0  0  0  0  0
    2.1181   20.6551  -17.8036 C   0  0  0  0  0  0  0  0  0  0  0  0
    1.8170   21.9967  -17.8124 C   0  0  0  0  0  0  0  0  0  0  0  0
    2.3567   22.8770  -16.7094 C   0  0  0  0  0  0  0  0  0  0  0  0
    1.0410   22.5228  -18.8017 C   0  0  0  0  0  0  0  0  0  0  0  0
    0.5003   21.7670  -19.8596 C   0  0  0  0  0  0  0  0  0  0  0  0
   -0.2692   22.1919  -20.8772 C   0  0  0  0  0  0  0  0  0  0  0  0
   -0.6873   21.2714  -21.8091 C   0  0  0  0  0  0  0  0  0  0  0  0
    0.0274   19.8479  -21.2052 S   0  0  0  0  0  0  0  0  0  0  0  0
    0.8143   20.4385  -19.8267 C   0  0  0  0  0  0  0  0  0  0  0  0
    3.0218   17.9063  -18.4532 C   0  0  0  0  0  0  0  0  0  0  0  0
    1.8389   18.5200  -18.9231 O   0  0  0  0  0  0  0  0  0  0  0  0
   -3.7321   21.5562  -21.9064 C   0  0  0  0  0  0  0  0  0  0  0  0
   -5.0141   22.2403  -22.1351 N   0  0  0  0  0  0  0  0  0  0  0  0
   -4.9976   23.4821  -21.3066 C   0  0  0  0  0  0  0  0  0  0  0  0
   -6.3028   24.1849  -21.2951 C   0  0  0  0  0  0  0  0  0  0  0  0
   -7.3576   23.4146  -21.9045 N   0  0  0  0  0  0  0  0  0  0  0  0
   -7.3730   22.0027  -21.6291 C   0  0  0  0  0  0  0  0  0  0  0  0
   -8.4394   21.3450  -21.5511 O   0  0  0  0  0  0  0  0  0  0  0  0
   -6.0504   21.3816  -21.4455 C   0  0  0  0  0  0  0  0  0  0  0  0
   -8.1071   23.7822  -22.5208 H   0  0  0  0  0  0  0  0  0  0  0  0
   -4.5496   22.0756  -24.9840 C   0  0  0  0  0  0  0  0  0  0  0  0
   -5.1499   23.4038  -24.6952 N   0  0  0  0  0  0  0  0  0  0  0  0
   -4.2857   24.3232  -25.4863 C   0  0  0  0  0  0  0  0  0  0  0  0
   -5.0161   25.6270  -25.7511 C   0  0  0  0  0  0  0  0  0  0  0  0
   -5.9540   25.3464  -26.8358 N   0  0  0  0  0  0  0  0  0  0  0  0
   -6.2963   23.9289  -26.8325 C   0  0  0  0  0  0  0  0  0  0  0  0
   -6.4384   23.4044  -25.4264 C   0  0  0  0  0  0  0  0  0  0  0  0
   -6.7951   25.9588  -26.7998 H   0  0  0  0  0  0  0  0  0  0  0  0
 23 24  1  0  0  0
 24 13  1  0  0  0
 13 14  2  0  0  0
 14 15  1  0  0  0
 15 16  1  0  0  0
 15 17  2  0  0  0
 17 18  1  0  0  0
 18 19  1  0  0  0
 19 20  2  0  0  0
 20 21  1  0  0  0
 21 22  1  0  0  0
 20  1  1  0  0  0
  1  2  1  0  0  0
  2 25  1  0  0  0
 25 26  1  0  0  0
 26 27  1  0  0  0
 27 28  1  0  0  0
 28 29  1  0  0  0
 29 30  1  0  0  0
 30 31  2  0  0  0
 30 32  1  0  0  0
  2  3  2  0  0  0
  3 34  1  0  0  0
 34 35  1  0  0  0
 35 36  1  0  0  0
 36 37  1  0  0  0
 37 38  1  0  0  0
 38 39  1  0  0  0
 39 40  1  0  0  0
  3  4  1  0  0  0
  4  5  1  0  0  0
  5  6  2  0  0  0
  6  7  1  0  0  0
  7  8  2  0  0  0
  8  9  1  0  0  0
  8 10  1  0  0  0
 22 13  1  0  0  0
 10  1  2  0  0  0
 22 18  2  0  0  0
 32 26  1  0  0  0
 40 35  1  0  0  0
 10  4  1  0  0  0
 29 33  1  0  0  0
 38 41  1  0  0  0
  9 11  1  0  0  0
  9 12  1  0  0  0
M  END
> <minimizedAffinity>
-8.14429

> <CNNscore>
0.3479140401

> <CNNaffinity>
7.0633559227

> <CNN_VS>
2.4574406147

> <CNNaffinity_variance>
0.0257368274

$$$$
[H]c1nc(N([H])[H])c2c(-c3sc4c(OC([H])([H])[H])c([H])c(C([H])([H])[H])c([H])c4c3[H])c(C([H])([H])N3C([H])([H])C(=O)N([H])C([H])([H])C3([H])[H])c(C([H])([H])N3C([H])([H])C([H])([H])N([H])C([H])([H])C3([H])[H])n2n1


 41 46  0  0  0  0  0  0  0  0999 V2000
   -1.3176   21.8192  -22.9541 C   0  0  0  0  0  0  0  0  0  0  0  0
   -1.7687   21.1907  -21.7914 C   0  0  0  0  0  0  0  0  0  0  0  0
   -0.6663   20.6173  -21.1844 C   0  0  0  0  0  0  0  0  0  0  0  0
    0.4336   20.8758  -21.9367 N   0  0  0  0  0  0  0  0  0  0  0  0
    1.6706   20.5204  -21.7325 N   0  0  0  0  0  0  0  0  0  0  0  0
    2.6560   20.8370  -22.5620 C   0  0  0  0  0  0  0  0  0  0  0  0
    2.3511   21.5423  -23.6368 N   0  0  0  0  0  0  0  0  0  0  0  0
    1.0612   21.9269  -23.8737 C   0  0  0  0  0  0  0  0  0  0  0  0
    0.8771   22.6128  -25.0695 N   0  0  0  0  0  0  0  0  0  0  0  0
    0.0339   21.6053  -23.0168 C   0  0  0  0  0  0  0  0  0  0  0  0
    0.4302   22.0754  -25.8688 H   0  0  0  0  0  0  0  0  0  0  0  0
    1.1779   23.6082  -25.2168 H   0  0  0  0  0  0  0  0  0  0  0  0
   -4.4937   23.8612  -26.9346 C   0  0  0  0  0  0  0  0  0  0  0  0
   -5.1148   25.0911  -26.9490 C   0  0  0  0  0  0  0  0  0  0  0  0
   -4.9215   25.9221  -25.8708 C   0  0  0  0  0  0  0  0  0  0  0  0
   -5.5879   27.2781  -25.8608 C   0  0  0  0  0  0  0  0  0  0  0  0
   -4.1379   25.5274  -24.8278 C   0  0  0  0  0  0  0  0  0  0  0  0
   -3.4828   24.2825  -24.7665 C   0  0  0  0  0  0  0  0  0  0  0  0
   -2.6961   23.8037  -23.7867 C   0  0  0  0  0  0  0  0  0  0  0  0
   -2.1566   22.5479  -23.9365 C   0  0  0  0  0  0  0  0  0  0  0  0
   -2.7871   22.1008  -25.4546 S   0  0  0  0  0  0  0  0  0  0  0  0
   -3.6913   23.4773  -25.8495 C   0  0  0  0  0  0  0  0  0  0  0  0
   -5.3198   23.2023  -29.1434 C   0  0  0  0  0  0  0  0  0  0  0  0
   -4.6069   22.9402  -27.9519 O   0  0  0  0  0  0  0  0  0  0  0  0
   -3.1932   21.1064  -21.4447 C   0  0  0  0  0  0  0  0  0  0  0  0
   -3.4937   21.9314  -20.2644 N   0  0  0  0  0  0  0  0  0  0  0  0
   -4.0448   21.0147  -19.2229 C   0  0  0  0  0  0  0  0  0  0  0  0
   -4.5640   21.7362  -18.0364 C   0  0  0  0  0  0  0  0  0  0  0  0
   -4.6216   23.1631  -18.2310 N   0  0  0  0  0  0  0  0  0  0  0  0
   -5.0603   23.6254  -19.5208 C   0  0  0  0  0  0  0  0  0  0  0  0
   -5.7104   24.6891  -19.6677 O   0  0  0  0  0  0  0  0  0  0  0  0
   -4.6930   22.7643  -20.6577 C   0  0  0  0  0  0  0  0  0  0  0  0
   -4.3788   23.8875  -17.5289 H   0  0  0  0  0  0  0  0  0  0  0  0
   -0.6334   19.8790  -19.9115 C   0  0  0  0  0  0  0  0  0  0  0  0
   -0.6810   20.7736  -18.7261 N   0  0  0  0  0  0  0  0  0  0  0  0
   -0.9769   19.8215  -17.6197 C   0  0  0  0  0  0  0  0  0  0  0  0
   -0.5595   20.4214  -16.2895 C   0  0  0  0  0  0  0  0  0  0  0  0
    0.8923   20.2707  -16.2212 N   0  0  0  0  0  0  0  0  0  0  0  0
    1.4425   20.2141  -17.5704 C   0  0  0  0  0  0  0  0  0  0  0  0
    0.7277   21.1686  -18.4925 C   0  0  0  0  0  0  0  0  0  0  0  0
    1.3397   21.0093  -15.6397 H   0  0  0  0  0  0  0  0  0  0  0  0
 23 24  1  0  0  0
 24 13  1  0  0  0
 13 14  2  0  0  0
 14 15  1  0  0  0
 15 16  1  0  0  0
 15 17  2  0  0  0
 17 18  1  0  0  0
 18 19  1  0  0  0
 19 20  2  0  0  0
 20 21  1  0  0  0
 21 22  1  0  0  0
 20  1  1  0  0  0
  1  2  1  0  0  0
  2 25  1  0  0  0
 25 26  1  0  0  0
 26 27  1  0  0  0
 27 28  1  0  0  0
 28 29  1  0  0  0
 29 30  1  0  0  0
 30 31  2  0  0  0
 30 32  1  0  0  0
  2  3  2  0  0  0
  3 34  1  0  0  0
 34 35  1  0  0  0
 35 36  1  0  0  0
 36 37  1  0  0  0
 37 38  1  0  0  0
 38 39  1  0  0  0
 39 40  1  0  0  0
  3  4  1  0  0  0
  4  5  1  0  0  0
  5  6  2  0  0  0
  6  7  1  0  0  0
  7  8  2  0  0  0
  8  9  1  0  0  0
  8 10  1  0  0  0
 22 13  1  0  0  0
 10  1  2  0  0  0
 22 18  2  0  0  0
 32 26  1  0  0  0
 40 35  1  0  0  0
 10  4  1  0  0  0
 29 33  1  0  0  0
 38 41  1  0  0  0
  9 11  1  0  0  0
  9 12  1  0  0  0
M  END
> <minimizedAffinity>
-6.76206

> <CNNscore>
0.2373496890

> <CNNaffinity>
6.9547324181

> <CNN_VS>
1.6507035494

> <CNNaffinity_variance>
0.3353004456

$$$$
[H]c1nc(N([H])[H])c2c(-c3sc4c(OC([H])([H])[H])c([H])c(C([H])([H])[H])c([H])c4c3[H])c(C([H])([H])N3C([H])([H])C(=O)N([H])C([H])([H])C3([H])[H])c(C([H])([H])N3C([H])([H])C([H])([H])N([H])C([H])([H])C3([H])[H])n2n1


 41 46  0  0  0  0  0  0  0  0999 V2000
   -1.2327   22.2543  -22.4809 C   0  0  0  0  0  0  0  0  0  0  0  0
   -2.5433   22.7325  -22.4167 C   0  0  0  0  0  0  0  0  0  0  0  0
   -2.9355   23.0207  -23.7113 C   0  0  0  0  0  0  0  0  0  0  0  0
   -1.9112   22.7347  -24.5548 N   0  0  0  0  0  0  0  0  0  0  0  0
   -1.8546   22.8602  -25.8506 N   0  0  0  0  0  0  0  0  0  0  0  0
   -0.7760   22.5480  -26.5568 C   0  0  0  0  0  0  0  0  0  0  0  0
    0.2768   22.0930  -25.9010 N   0  0  0  0  0  0  0  0  0  0  0  0
    0.2427   21.9526  -24.5420 C   0  0  0  0  0  0  0  0  0  0  0  0
    1.4386   21.5193  -23.9794 N   0  0  0  0  0  0  0  0  0  0  0  0
   -0.8730   22.2711  -23.8024 C   0  0  0  0  0  0  0  0  0  0  0  0
    2.0263   22.2476  -23.4780 H   0  0  0  0  0  0  0  0  0  0  0  0
    1.7859   20.5307  -24.0510 H   0  0  0  0  0  0  0  0  0  0  0  0
    2.0187   20.1131  -18.6151 C   0  0  0  0  0  0  0  0  0  0  0  0
    2.5288   20.7602  -17.5107 C   0  0  0  0  0  0  0  0  0  0  0  0
    2.1891   22.0795  -17.3244 C   0  0  0  0  0  0  0  0  0  0  0  0
    2.7314   22.8137  -16.1203 C   0  0  0  0  0  0  0  0  0  0  0  0
    1.3731   22.7136  -18.2130 C   0  0  0  0  0  0  0  0  0  0  0  0
    0.8274   22.0963  -19.3548 C   0  0  0  0  0  0  0  0  0  0  0  0
    0.0201   22.6344  -20.2859 C   0  0  0  0  0  0  0  0  0  0  0  0
   -0.3952   21.8404  -21.3288 C   0  0  0  0  0  0  0  0  0  0  0  0
    0.3755   20.3701  -20.9465 S   0  0  0  0  0  0  0  0  0  0  0  0
    1.1802   20.7870  -19.5158 C   0  0  0  0  0  0  0  0  0  0  0  0
    1.7462   17.7213  -18.1672 C   0  0  0  0  0  0  0  0  0  0  0  0
    2.2825   18.7949  -18.9132 O   0  0  0  0  0  0  0  0  0  0  0  0
   -3.2334   22.9677  -21.1421 C   0  0  0  0  0  0  0  0  0  0  0  0
   -3.7913   21.7146  -20.6106 N   0  0  0  0  0  0  0  0  0  0  0  0
   -5.2587   21.9303  -20.4406 C   0  0  0  0  0  0  0  0  0  0  0  0
   -5.9288   20.8088  -19.7398 C   0  0  0  0  0  0  0  0  0  0  0  0
   -4.9967   19.8581  -19.1878 N   0  0  0  0  0  0  0  0  0  0  0  0
   -3.8081   20.3926  -18.5786 C   0  0  0  0  0  0  0  0  0  0  0  0
   -3.2507   19.8428  -17.5975 O   0  0  0  0  0  0  0  0  0  0  0  0
   -3.2897   21.6298  -19.1865 C   0  0  0  0  0  0  0  0  0  0  0  0
   -5.1030   18.8259  -19.1866 H   0  0  0  0  0  0  0  0  0  0  0  0
   -4.2491   23.5143  -24.1553 C   0  0  0  0  0  0  0  0  0  0  0  0
   -4.4583   24.9524  -23.8453 N   0  0  0  0  0  0  0  0  0  0  0  0
   -4.9559   25.4891  -25.1423 C   0  0  0  0  0  0  0  0  0  0  0  0
   -5.7104   26.7863  -24.9151 C   0  0  0  0  0  0  0  0  0  0  0  0
   -7.0253   26.4002  -24.4082 N   0  0  0  0  0  0  0  0  0  0  0  0
   -6.9331   25.1049  -23.7448 C   0  0  0  0  0  0  0  0  0  0  0  0
   -5.6493   24.9807  -22.9645 C   0  0  0  0  0  0  0  0  0  0  0  0
   -7.4439   27.1315  -23.7968 H   0  0  0  0  0  0  0  0  0  0  0  0
 23 24  1  0  0  0
 24 13  1  0  0  0
 13 14  2  0  0  0
 14 15  1  0  0  0
 15 16  1  0  0  0
 15 17  2  0  0  0
 17 18  1  0  0  0
 18 19  1  0  0  0
 19 20  2  0  0  0
 20 21  1  0  0  0
 21 22  1  0  0  0
 20  1  1  0  0  0
  1  2  1  0  0  0
  2 25  1  0  0  0
 25 26  1  0  0  0
 26 27  1  0  0  0
 27 28  1  0  0  0
 28 29  1  0  0  0
 29 30  1  0  0  0
 30 31  2  0  0  0
 30 32  1  0  0  0
  2  3  2  0  0  0
  3 34  1  0  0  0
 34 35  1  0  0  0
 35 36  1  0  0  0
 36 37  1  0  0  0
 37 38  1  0  0  0
 38 39  1  0  0  0
 39 40  1  0  0  0
  3  4  1  0  0  0
  4  5  1  0  0  0
  5  6  2  0  0  0
  6  7  1  0  0  0
  7  8  2  0  0  0
  8  9  1  0  0  0
  8 10  1  0  0  0
 22 13  1  0  0  0
 10  1  2  0  0  0
 22 18  2  0  0  0
 32 26  1  0  0  0
 40 35  1  0  0  0
 10  4  1  0  0  0
 29 33  1  0  0  0
 38 41  1  0  0  0
  9 11  1  0  0  0
  9 12  1  0  0  0
M  END
> <minimizedAffinity>
-7.36611

> <CNNscore>
0.1808880419

> <CNNaffinity>
6.6896696091

> <CNN_VS>
1.2100812197

> <CNNaffinity_variance>
0.1129618883

$$$$
[H]c1nc(N([H])[H])c2c(-c3sc4c(OC([H])([H])[H])c([H])c(C([H])([H])[H])c([H])c4c3[H])c(C([H])([H])N3C([H])([H])C(=O)N([H])C([H])([H])C3([H])[H])c(C([H])([H])N3C([H])([H])C([H])([H])N([H])C([H])([H])C3([H])[H])n2n1


 41 46  0  0  0  0  0  0  0  0999 V2000
   -1.6792   22.0343  -23.2262 C   0  0  0  0  0  0  0  0  0  0  0  0
   -2.1430   21.4654  -22.0379 C   0  0  0  0  0  0  0  0  0  0  0  0
   -1.0480   20.9191  -21.3935 C   0  0  0  0  0  0  0  0  0  0  0  0
    0.0595   21.1367  -22.1476 N   0  0  0  0  0  0  0  0  0  0  0  0
    1.2933   20.7879  -21.9149 N   0  0  0  0  0  0  0  0  0  0  0  0
    2.2871   21.0600  -22.7501 C   0  0  0  0  0  0  0  0  0  0  0  0
    1.9943   21.7124  -23.8611 N   0  0  0  0  0  0  0  0  0  0  0  0
    0.7081   22.0889  -24.1283 C   0  0  0  0  0  0  0  0  0  0  0  0
    0.5370   22.7155  -25.3582 N   0  0  0  0  0  0  0  0  0  0  0  0
   -0.3280   21.8133  -23.2659 C   0  0  0  0  0  0  0  0  0  0  0  0
    0.0953   22.1407  -26.1339 H   0  0  0  0  0  0  0  0  0  0  0  0
    0.8428   23.7016  -25.5516 H   0  0  0  0  0  0  0  0  0  0  0  0
   -4.6427   25.1733  -26.6123 C   0  0  0  0  0  0  0  0  0  0  0  0
   -5.0630   24.8511  -27.8844 C   0  0  0  0  0  0  0  0  0  0  0  0
   -4.7325   23.6103  -28.3761 C   0  0  0  0  0  0  0  0  0  0  0  0
   -5.1827   23.2287  -29.7670 C   0  0  0  0  0  0  0  0  0  0  0  0
   -4.0109   22.7378  -27.6175 C   0  0  0  0  0  0  0  0  0  0  0  0
   -3.5592   23.0200  -26.3141 C   0  0  0  0  0  0  0  0  0  0  0  0
   -2.8439   22.2315  -25.4926 C   0  0  0  0  0  0  0  0  0  0  0  0
   -2.5068   22.7163  -24.2508 C   0  0  0  0  0  0  0  0  0  0  0  0
   -3.2152   24.2648  -24.3017 S   0  0  0  0  0  0  0  0  0  0  0  0
   -3.9011   24.2579  -25.8502 C   0  0  0  0  0  0  0  0  0  0  0  0
   -5.9687   26.5573  -25.0885 C   0  0  0  0  0  0  0  0  0  0  0  0
   -4.9090   26.3808  -26.0064 O   0  0  0  0  0  0  0  0  0  0  0  0
   -3.5707   21.4029  -21.7005 C   0  0  0  0  0  0  0  0  0  0  0  0
   -3.8492   22.1513  -20.4650 N   0  0  0  0  0  0  0  0  0  0  0  0
   -4.4959   21.1975  -19.5160 C   0  0  0  0  0  0  0  0  0  0  0  0
   -4.9999   21.8583  -18.2884 C   0  0  0  0  0  0  0  0  0  0  0  0
   -4.9507   23.2966  -18.3677 N   0  0  0  0  0  0  0  0  0  0  0  0
   -5.3150   23.8905  -19.6263 C   0  0  0  0  0  0  0  0  0  0  0  0
   -5.8836   25.0070  -19.7027 O   0  0  0  0  0  0  0  0  0  0  0  0
   -4.9739   23.0979  -20.8197 C   0  0  0  0  0  0  0  0  0  0  0  0
   -4.6795   23.9434  -17.6029 H   0  0  0  0  0  0  0  0  0  0  0  0
   -1.0291   20.2445  -20.0855 C   0  0  0  0  0  0  0  0  0  0  0  0
   -0.9831   21.1981  -18.9468 N   0  0  0  0  0  0  0  0  0  0  0  0
   -1.4476   20.3579  -17.8083 C   0  0  0  0  0  0  0  0  0  0  0  0
   -0.9888   20.9612  -16.4934 C   0  0  0  0  0  0  0  0  0  0  0  0
    0.4231   20.6081  -16.3628 N   0  0  0  0  0  0  0  0  0  0  0  0
    1.0005   20.4022  -17.6859 C   0  0  0  0  0  0  0  0  0  0  0  0
    0.4602   21.3991  -18.6791 C   0  0  0  0  0  0  0  0  0  0  0  0
    0.9547   21.3048  -15.8007 H   0  0  0  0  0  0  0  0  0  0  0  0
 23 24  1  0  0  0
 24 13  1  0  0  0
 13 14  2  0  0  0
 14 15  1  0  0  0
 15 16  1  0  0  0
 15 17  2  0  0  0
 17 18  1  0  0  0
 18 19  1  0  0  0
 19 20  2  0  0  0
 20 21  1  0  0  0
 21 22  1  0  0  0
 20  1  1  0  0  0
  1  2  1  0  0  0
  2 25  1  0  0  0
 25 26  1  0  0  0
 26 27  1  0  0  0
 27 28  1  0  0  0
 28 29  1  0  0  0
 29 30  1  0  0  0
 30 31  2  0  0  0
 30 32  1  0  0  0
  2  3  2  0  0  0
  3 34  1  0  0  0
 34 35  1  0  0  0
 35 36  1  0  0  0
 36 37  1  0  0  0
 37 38  1  0  0  0
 38 39  1  0  0  0
 39 40  1  0  0  0
  3  4  1  0  0  0
  4  5  1  0  0  0
  5  6  2  0  0  0
  6  7  1  0  0  0
  7  8  2  0  0  0
  8  9  1  0  0  0
  8 10  1  0  0  0
 22 13  1  0  0  0
 10  1  2  0  0  0
 22 18  2  0  0  0
 32 26  1  0  0  0
 40 35  1  0  0  0
 10  4  1  0  0  0
 29 33  1  0  0  0
 38 41  1  0  0  0
  9 11  1  0  0  0
  9 12  1  0  0  0
M  END
> <minimizedAffinity>
-7.47854

> <CNNscore>
0.1763516217

> <CNNaffinity>
6.9436712265

> <CNN_VS>
1.2245277166

> <CNNaffinity_variance>
0.2582843602

$$$$
[H]c1nc(N([H])[H])c2c(-c3sc4c(OC([H])([H])[H])c([H])c(C([H])([H])[H])c([H])c4c3[H])c(C([H])([H])N3C([H])([H])C(=O)N([H])C([H])([H])C3([H])[H])c(C([H])([H])N3C([H])([H])C([H])([H])N([H])C([H])([H])C3([H])[H])n2n1


 41 46  0  0  0  0  0  0  0  0999 V2000
   -0.1906   21.9969  -22.0205 C   0  0  0  0  0  0  0  0  0  0  0  0
   -0.3111   21.9290  -20.6308 C   0  0  0  0  0  0  0  0  0  0  0  0
    0.8403   21.3318  -20.1509 C   0  0  0  0  0  0  0  0  0  0  0  0
    1.6516   21.0365  -21.1983 N   0  0  0  0  0  0  0  0  0  0  0  0
    2.8244   20.4686  -21.1944 N   0  0  0  0  0  0  0  0  0  0  0  0
    3.5111   20.2293  -22.3037 C   0  0  0  0  0  0  0  0  0  0  0  0
    2.9662   20.5878  -23.4526 N   0  0  0  0  0  0  0  0  0  0  0  0
    1.7372   21.1847  -23.4834 C   0  0  0  0  0  0  0  0  0  0  0  0
    1.2619   21.4547  -24.7623 N   0  0  0  0  0  0  0  0  0  0  0  0
    1.0198   21.4393  -22.3373 C   0  0  0  0  0  0  0  0  0  0  0  0
    0.5049   20.8131  -25.1399 H   0  0  0  0  0  0  0  0  0  0  0  0
    1.6309   22.2330  -25.3634 H   0  0  0  0  0  0  0  0  0  0  0  0
   -3.9401   24.6130  -25.0535 C   0  0  0  0  0  0  0  0  0  0  0  0
   -4.3479   24.2864  -26.3285 C   0  0  0  0  0  0  0  0  0  0  0  0
   -3.7833   23.1817  -26.9214 C   0  0  0  0  0  0  0  0  0  0  0  0
   -4.2137   22.7980  -28.3179 C   0  0  0  0  0  0  0  0  0  0  0  0
   -2.8503   22.4434  -26.2564 C   0  0  0  0  0  0  0  0  0  0  0  0
   -2.4015   22.7361  -24.9542 C   0  0  0  0  0  0  0  0  0  0  0  0
   -1.4896   22.0744  -24.2202 C   0  0  0  0  0  0  0  0  0  0  0  0
   -1.1998   22.5429  -22.9604 C   0  0  0  0  0  0  0  0  0  0  0  0
   -2.2284   23.8980  -22.8716 S   0  0  0  0  0  0  0  0  0  0  0  0
   -2.9782   23.8372  -24.3889 C   0  0  0  0  0  0  0  0  0  0  0  0
   -4.3256   27.0201  -24.8241 C   0  0  0  0  0  0  0  0  0  0  0  0
   -4.4288   25.6923  -24.3519 O   0  0  0  0  0  0  0  0  0  0  0  0
   -1.5361   22.3292  -19.9269 C   0  0  0  0  0  0  0  0  0  0  0  0
   -2.4378   21.1802  -19.7522 N   0  0  0  0  0  0  0  0  0  0  0  0
   -3.8320   21.6997  -19.8749 C   0  0  0  0  0  0  0  0  0  0  0  0
   -4.8576   20.6830  -19.5399 C   0  0  0  0  0  0  0  0  0  0  0  0
   -4.2928   19.4874  -18.9664 N   0  0  0  0  0  0  0  0  0  0  0  0
   -3.2159   19.6630  -18.0289 C   0  0  0  0  0  0  0  0  0  0  0  0
   -3.0379   18.8884  -17.0573 O   0  0  0  0  0  0  0  0  0  0  0  0
   -2.3355   20.8148  -18.2884 C   0  0  0  0  0  0  0  0  0  0  0  0
   -4.5907   18.5133  -19.1641 H   0  0  0  0  0  0  0  0  0  0  0  0
    1.1928   21.0784  -18.7446 C   0  0  0  0  0  0  0  0  0  0  0  0
    1.3487   22.3282  -17.9562 N   0  0  0  0  0  0  0  0  0  0  0  0
    1.8704   21.8223  -16.6562 C   0  0  0  0  0  0  0  0  0  0  0  0
    2.5778   22.9376  -15.9084 C   0  0  0  0  0  0  0  0  0  0  0  0
    3.8872   23.0756  -16.5421 N   0  0  0  0  0  0  0  0  0  0  0  0
    3.8133   22.6151  -17.9237 C   0  0  0  0  0  0  0  0  0  0  0  0
    2.5100   23.0179  -18.5650 C   0  0  0  0  0  0  0  0  0  0  0  0
    4.2641   24.0430  -16.4647 H   0  0  0  0  0  0  0  0  0  0  0  0
 23 24  1  0  0  0
 24 13  1  0  0  0
 13 14  2  0  0  0
 14 15  1  0  0  0
 15 16  1  0  0  0
 15 17  2  0  0  0
 17 18  1  0  0  0
 18 19  1  0  0  0
 19 20  2  0  0  0
 20 21  1  0  0  0
 21 22  1  0  0  0
 20  1  1  0  0  0
  1  2  1  0  0  0
  2 25  1  0  0  0
 25 26  1  0  0  0
 26 27  1  0  0  0
 27 28  1  0  0  0
 28 29  1  0  0  0
 29 30  1  0  0  0
 30 31  2  0  0  0
 30 32  1  0  0  0
  2  3  2  0  0  0
  3 34  1  0  0  0
 34 35  1  0  0  0
 35 36  1  0  0  0
 36 37  1  0  0  0
 37 38  1  0  0  0
 38 39  1  0  0  0
 39 40  1  0  0  0
  3  4  1  0  0  0
  4  5  1  0  0  0
  5  6  2  0  0  0
  6  7  1  0  0  0
  7  8  2  0  0  0
  8  9  1  0  0  0
  8 10  1  0  0  0
 22 13  1  0  0  0
 10  1  2  0  0  0
 22 18  2  0  0  0
 32 26  1  0  0  0
 40 35  1  0  0  0
 10  4  1  0  0  0
 29 33  1  0  0  0
 38 41  1  0  0  0
  9 11  1  0  0  0
  9 12  1  0  0  0
M  END
> <minimizedAffinity>
-7.76639

> <CNNscore>
0.1539541185

> <CNNaffinity>
6.2056269646

> <CNN_VS>
0.9553818107

> <CNNaffinity_variance>
0.3605136275

$$$$
[H]c1nc(N([H])[H])c2c(-c3sc4c(OC([H])([H])[H])c([H])c(C([H])([H])[H])c([H])c4c3[H])c(C([H])([H])N3C([H])([H])C(=O)N([H])C([H])([H])C3([H])[H])c(C([H])([H])N3C([H])([H])C([H])([H])N([H])C([H])([H])C3([H])[H])n2n1


 41 46  0  0  0  0  0  0  0  0999 V2000
   -1.8226   21.9476  -22.3576 C   0  0  0  0  0  0  0  0  0  0  0  0
   -3.0986   22.3490  -21.9560 C   0  0  0  0  0  0  0  0  0  0  0  0
   -3.7503   22.8202  -23.0812 C   0  0  0  0  0  0  0  0  0  0  0  0
   -2.9160   22.7184  -24.1471 N   0  0  0  0  0  0  0  0  0  0  0  0
   -3.1266   23.0498  -25.3897 N   0  0  0  0  0  0  0  0  0  0  0  0
   -2.2110   22.9030  -26.3380 C   0  0  0  0  0  0  0  0  0  0  0  0
   -1.0407   22.3987  -25.9890 N   0  0  0  0  0  0  0  0  0  0  0  0
   -0.7951   22.0436  -24.6924 C   0  0  0  0  0  0  0  0  0  0  0  0
    0.4958   21.5821  -24.4582 N   0  0  0  0  0  0  0  0  0  0  0  0
   -1.7404   22.1897  -23.7033 C   0  0  0  0  0  0  0  0  0  0  0  0
    1.1642   22.2481  -23.9713 H   0  0  0  0  0  0  0  0  0  0  0  0
    0.8339   20.6342  -24.7589 H   0  0  0  0  0  0  0  0  0  0  0  0
    2.0037   20.5156  -18.6957 C   0  0  0  0  0  0  0  0  0  0  0  0
    2.5945   19.2786  -18.5564 C   0  0  0  0  0  0  0  0  0  0  0  0
    2.2153   18.2831  -19.4257 C   0  0  0  0  0  0  0  0  0  0  0  0
    2.8487   16.9173  -19.2985 C   0  0  0  0  0  0  0  0  0  0  0  0
    1.2825   18.5273  -20.3891 C   0  0  0  0  0  0  0  0  0  0  0  0
    0.6512   19.7726  -20.5714 C   0  0  0  0  0  0  0  0  0  0  0  0
   -0.2765   20.1092  -21.4847 C   0  0  0  0  0  0  0  0  0  0  0  0
   -0.7625   21.3955  -21.4794 C   0  0  0  0  0  0  0  0  0  0  0  0
    0.1131   22.0698  -20.1830 S   0  0  0  0  0  0  0  0  0  0  0  0
    1.0461   20.7430  -19.6956 C   0  0  0  0  0  0  0  0  0  0  0  0
    3.6091   21.8870  -17.4557 C   0  0  0  0  0  0  0  0  0  0  0  0
    2.2971   21.5934  -17.8904 O   0  0  0  0  0  0  0  0  0  0  0  0
   -3.5170   22.3478  -20.5485 C   0  0  0  0  0  0  0  0  0  0  0  0
   -4.9829   22.2916  -20.4388 N   0  0  0  0  0  0  0  0  0  0  0  0
   -5.3837   23.3269  -19.4407 C   0  0  0  0  0  0  0  0  0  0  0  0
   -6.8229   23.2636  -19.0907 C   0  0  0  0  0  0  0  0  0  0  0  0
   -7.4757   22.0928  -19.6201 N   0  0  0  0  0  0  0  0  0  0  0  0
   -6.7365   20.8595  -19.5723 C   0  0  0  0  0  0  0  0  0  0  0  0
   -7.2956   19.7468  -19.4139 O   0  0  0  0  0  0  0  0  0  0  0  0
   -5.2776   20.9926  -19.7229 C   0  0  0  0  0  0  0  0  0  0  0  0
   -8.4282   22.0551  -20.0302 H   0  0  0  0  0  0  0  0  0  0  0  0
   -5.1330   23.3171  -23.1674 C   0  0  0  0  0  0  0  0  0  0  0  0
   -5.2151   24.8002  -23.1272 N   0  0  0  0  0  0  0  0  0  0  0  0
   -5.5638   25.1385  -24.5350 C   0  0  0  0  0  0  0  0  0  0  0  0
   -6.1956   26.5170  -24.5991 C   0  0  0  0  0  0  0  0  0  0  0  0
   -7.5752   26.3455  -24.1491 N   0  0  0  0  0  0  0  0  0  0  0  0
   -7.6623   25.1866  -23.2684 C   0  0  0  0  0  0  0  0  0  0  0  0
   -6.4553   25.0907  -22.3705 C   0  0  0  0  0  0  0  0  0  0  0  0
   -7.9582   27.2084  -23.7103 H   0  0  0  0  0  0  0  0  0  0  0  0
 23 24  1  0  0  0
 24 13  1  0  0  0
 13 14  2  0  0  0
 14 15  1  0  0  0
 15 16  1  0  0  0
 15 17  2  0  0  0
 17 18  1  0  0  0
 18 19  1  0  0  0
 19 20  2  0  0  0
 20 21  1  0  0  0
 21 22  1  0  0  0
 20  1  1  0  0  0
  1  2  1  0  0  0
  2 25  1  0  0  0
 25 26  1  0  0  0
 26 27  1  0  0  0
 27 28  1  0  0  0
 28 29  1  0  0  0
 29 30  1  0  0  0
 30 31  2  0  0  0
 30 32  1  0  0  0
  2  3  2  0  0  0
  3 34  1  0  0  0
 34 35  1  0  0  0
 35 36  1  0  0  0
 36 37  1  0  0  0
 37 38  1  0  0  0
 38 39  1  0  0  0
 39 40  1  0  0  0
  3  4  1  0  0  0
  4  5  1  0  0  0
  5  6  2  0  0  0
  6  7  1  0  0  0
  7  8  2  0  0  0
  8  9  1  0  0  0
  8 10  1  0  0  0
 22 13  1  0  0  0
 10  1  2  0  0  0
 22 18  2  0  0  0
 32 26  1  0  0  0
 40 35  1  0  0  0
 10  4  1  0  0  0
 29 33  1  0  0  0
 38 41  1  0  0  0
  9 11  1  0  0  0
  9 12  1  0  0  0
M  END
> <minimizedAffinity>
-7.23422

> <CNNscore>
0.0531601645

> <CNNaffinity>
6.2161054611

> <CNN_VS>
0.3304491937

> <CNNaffinity_variance>
0.1383354217

$$$$
[H]c1nc(N([H])[H])c2c(-c3sc4c(OC([H])([H])[H])c([H])c(C([H])([H])[H])c([H])c4c3[H])c(C([H])([H])N3C([H])([H])C(=O)N([H])C([H])([H])C3([H])[H])c(C([H])([H])N3C([H])([H])C([H])([H])N([H])C([H])([H])C3([H])[H])n2n1


 41 46  0  0  0  0  0  0  0  0999 V2000
   -0.7031   22.1869  -21.4501 C   0  0  0  0  0  0  0  0  0  0  0  0
   -0.4472   22.1326  -20.0782 C   0  0  0  0  0  0  0  0  0  0  0  0
    0.8364   21.6418  -19.9224 C   0  0  0  0  0  0  0  0  0  0  0  0
    1.3653   21.3976  -21.1485 N   0  0  0  0  0  0  0  0  0  0  0  0
    2.5417   20.9298  -21.4573 N   0  0  0  0  0  0  0  0  0  0  0  0
    2.9299   20.7300  -22.7098 C   0  0  0  0  0  0  0  0  0  0  0  0
    2.0733   21.0224  -23.6722 N   0  0  0  0  0  0  0  0  0  0  0  0
    0.8334   21.5140  -23.3743 C   0  0  0  0  0  0  0  0  0  0  0  0
    0.0170   21.7216  -24.4810 N   0  0  0  0  0  0  0  0  0  0  0  0
    0.4241   21.7270  -22.0781 C   0  0  0  0  0  0  0  0  0  0  0  0
   -0.7553   21.0128  -24.6492 H   0  0  0  0  0  0  0  0  0  0  0  0
    0.1471   22.5178  -25.1536 H   0  0  0  0  0  0  0  0  0  0  0  0
   -5.6845   23.2251  -23.5016 C   0  0  0  0  0  0  0  0  0  0  0  0
   -6.1150   24.4020  -24.0746 C   0  0  0  0  0  0  0  0  0  0  0  0
   -5.2155   25.4376  -24.1703 C   0  0  0  0  0  0  0  0  0  0  0  0
   -5.6590   26.7389  -24.7969 C   0  0  0  0  0  0  0  0  0  0  0  0
   -3.9420   25.2897  -23.7078 C   0  0  0  0  0  0  0  0  0  0  0  0
   -3.4552   24.1088  -23.1154 C   0  0  0  0  0  0  0  0  0  0  0  0
   -2.2248   23.8678  -22.6294 C   0  0  0  0  0  0  0  0  0  0  0  0
   -1.9667   22.6308  -22.0874 C   0  0  0  0  0  0  0  0  0  0  0  0
   -3.4753   21.8654  -22.2882 S   0  0  0  0  0  0  0  0  0  0  0  0
   -4.3682   23.0967  -23.0330 C   0  0  0  0  0  0  0  0  0  0  0  0
   -7.2234   21.8639  -22.1695 C   0  0  0  0  0  0  0  0  0  0  0  0
   -6.4862   22.1162  -23.3484 O   0  0  0  0  0  0  0  0  0  0  0  0
   -1.4730   22.4410  -19.0739 C   0  0  0  0  0  0  0  0  0  0  0  0
   -2.3398   21.2762  -18.8372 N   0  0  0  0  0  0  0  0  0  0  0  0
   -3.7031   21.8038  -18.5343 C   0  0  0  0  0  0  0  0  0  0  0  0
   -4.6456   20.7473  -18.0949 C   0  0  0  0  0  0  0  0  0  0  0  0
   -3.9951   19.4847  -17.8500 N   0  0  0  0  0  0  0  0  0  0  0  0
   -2.7137   19.5301  -17.1976 C   0  0  0  0  0  0  0  0  0  0  0  0
   -2.3250   18.6274  -16.4168 O   0  0  0  0  0  0  0  0  0  0  0  0
   -1.8886   20.7094  -17.5098 C   0  0  0  0  0  0  0  0  0  0  0  0
   -4.3642   18.5471  -18.0978 H   0  0  0  0  0  0  0  0  0  0  0  0
    1.5670   21.4425  -18.6604 C   0  0  0  0  0  0  0  0  0  0  0  0
    2.8046   22.2605  -18.5765 N   0  0  0  0  0  0  0  0  0  0  0  0
    2.2687   23.6223  -18.3003 C   0  0  0  0  0  0  0  0  0  0  0  0
    3.3450   24.4891  -17.6727 C   0  0  0  0  0  0  0  0  0  0  0  0
    3.4210   24.0802  -16.2719 N   0  0  0  0  0  0  0  0  0  0  0  0
    2.9700   22.6998  -16.1398 C   0  0  0  0  0  0  0  0  0  0  0  0
    3.4388   21.8584  -17.2994 C   0  0  0  0  0  0  0  0  0  0  0  0
    4.3684   24.2298  -15.8671 H   0  0  0  0  0  0  0  0  0  0  0  0
 23 24  1  0  0  0
 24 13  1  0  0  0
 13 14  2  0  0  0
 14 15  1  0  0  0
 15 16  1  0  0  0
 15 17  2  0  0  0
 17 18  1  0  0  0
 18 19  1  0  0  0
 19 20  2  0  0  0
 20 21  1  0  0  0
 21 22  1  0  0  0
 20  1  1  0  0  0
  1  2  1  0  0  0
  2 25  1  0  0  0
 25 26  1  0  0  0
 26 27  1  0  0  0
 27 28  1  0  0  0
 28 29  1  0  0  0
 29 30  1  0  0  0
 30 31  2  0  0  0
 30 32  1  0  0  0
  2  3  2  0  0  0
  3 34  1  0  0  0
 34 35  1  0  0  0
 35 36  1  0  0  0
 36 37  1  0  0  0
 37 38  1  0  0  0
 38 39  1  0  0  0
 39 40  1  0  0  0
  3  4  1  0  0  0
  4  5  1  0  0  0
  5  6  2  0  0  0
  6  7  1  0  0  0
  7  8  2  0  0  0
  8  9  1  0  0  0
  8 10  1  0  0  0
 22 13  1  0  0  0
 10  1  2  0  0  0
 22 18  2  0  0  0
 32 26  1  0  0  0
 40 35  1  0  0  0
 10  4  1  0  0  0
 29 33  1  0  0  0
 38 41  1  0  0  0
  9 11  1  0  0  0
  9 12  1  0  0  0
M  END
> <minimizedAffinity>
-7.03873

> <CNNscore>
0.0368409567

> <CNNaffinity>
5.6195311546

> <CNN_VS>
0.2070289105

> <CNNaffinity_variance>
0.5848385096

$$$$
[H]Oc1c([H])c([H])c(Cl)c([H])c1-c1nc([H])c(N([H])[C@]([H])(c2c([H])c([H])c([H])c([H])c2[H])C([H])([H])O[H])c([H])c1-c1c([H])c([H])c2c(c(C([H])([H])[H])nn2[H])c1[H]


 38 42  0  0  0  0  0  0  0  0999 V2000
   -4.8559   23.3508  -26.4393 C   0  0  0  0  0  0  0  0  0  0  0  0
   -5.1487   22.8680  -25.1808 C   0  0  0  0  0  0  0  0  0  0  0  0
   -6.4018   23.0124  -24.5752 C   0  0  0  0  0  0  0  0  0  0  0  0
   -7.3230   23.6790  -25.3432 C   0  0  0  0  0  0  0  0  0  0  0  0
   -7.0234   24.1517  -26.5846 N   0  0  0  0  0  0  0  0  0  0  0  0
   -5.8208   24.0140  -27.1671 C   0  0  0  0  0  0  0  0  0  0  0  0
    0.2470   22.3685  -24.5355 C   0  0  0  0  0  0  0  0  0  0  0  0
    0.0494   22.5186  -26.0010 C   0  0  0  0  0  0  0  0  0  0  0  0
    0.9284   22.4557  -27.0153 N   0  0  0  0  0  0  0  0  0  0  0  0
    0.3303   22.6432  -28.1766 N   0  0  0  0  0  0  0  0  0  0  0  0
   -1.0016   22.8439  -27.9900 C   0  0  0  0  0  0  0  0  0  0  0  0
   -2.0515   23.0808  -28.8528 C   0  0  0  0  0  0  0  0  0  0  0  0
   -3.3323   23.2498  -28.3640 C   0  0  0  0  0  0  0  0  0  0  0  0
   -3.5247   23.1759  -27.0070 C   0  0  0  0  0  0  0  0  0  0  0  0
   -2.4550   22.9358  -26.1505 C   0  0  0  0  0  0  0  0  0  0  0  0
   -1.1768   22.7656  -26.6252 C   0  0  0  0  0  0  0  0  0  0  0  0
    0.7658   22.6483  -29.1423 H   0  0  0  0  0  0  0  0  0  0  0  0
   -5.5888   24.5575  -28.5049 C   0  0  0  0  0  0  0  0  0  0  0  0
   -5.9214   23.7786  -29.5854 C   0  0  0  0  0  0  0  0  0  0  0  0
   -5.7375   24.2141  -30.8915 C   0  0  0  0  0  0  0  0  0  0  0  0
   -6.1654   23.2185  -32.2646 Cl  0  0  0  0  0  0  0  0  0  0  0  0
   -5.2035   25.4690  -31.0774 C   0  0  0  0  0  0  0  0  0  0  0  0
   -4.8576   26.2788  -30.0104 C   0  0  0  0  0  0  0  0  0  0  0  0
   -5.0587   25.8033  -28.7346 C   0  0  0  0  0  0  0  0  0  0  0  0
   -4.7178   26.6010  -27.6547 O   0  0  0  0  0  0  0  0  0  0  0  0
   -4.3306   27.5134  -27.6926 H   0  0  0  0  0  0  0  0  0  0  0  0
   -6.6418   22.4845  -23.2803 N   0  0  0  0  0  0  0  0  0  0  0  0
   -7.2642   21.5972  -23.2673 H   0  0  0  0  0  0  0  0  0  0  0  0
   -6.1864   22.9623  -22.0265 C   0  0  0  0  0  0  0  0  0  0  0  0
   -4.7168   22.9426  -21.9372 C   0  0  0  0  0  0  0  0  0  0  0  0
   -4.0286   21.8196  -21.5521 C   0  0  0  0  0  0  0  0  0  0  0  0
   -2.6294   21.8268  -21.4732 C   0  0  0  0  0  0  0  0  0  0  0  0
   -1.9248   22.9771  -21.7856 C   0  0  0  0  0  0  0  0  0  0  0  0
   -2.6173   24.1148  -22.1752 C   0  0  0  0  0  0  0  0  0  0  0  0
   -3.9949   24.0719  -22.2422 C   0  0  0  0  0  0  0  0  0  0  0  0
   -6.8775   22.3316  -20.8355 C   0  0  0  0  0  0  0  0  0  0  0  0
   -7.6428   21.2207  -21.2767 O   0  0  0  0  0  0  0  0  0  0  0  0
   -8.5237   21.5039  -21.5783 H   0  0  0  0  0  0  0  0  0  0  0  0
  7  8  1  0  0  0
  8  9  2  0  0  0
  9 10  1  0  0  0
 10 11  1  0  0  0
 11 12  2  0  0  0
 12 13  1  0  0  0
 13 14  2  0  0  0
 14 15  1  0  0  0
 15 16  2  0  0  0
 14  1  1  0  0  0
  1  2  2  0  0  0
  2  3  1  0  0  0
  3 27  1  0  0  0
 27 29  1  0  0  0
 29 36  1  0  0  0
 36 37  1  0  0  0
 29 30  1  0  0  0
 30 31  2  0  0  0
 31 32  1  0  0  0
 32 33  2  0  0  0
 33 34  1  0  0  0
 34 35  2  0  0  0
  3  4  2  0  0  0
  4  5  1  0  0  0
  5  6  2  0  0  0
  6 18  1  0  0  0
 18 19  2  0  0  0
 19 20  1  0  0  0
 20 21  1  0  0  0
 20 22  2  0  0  0
 22 23  1  0  0  0
 23 24  2  0  0  0
 24 25  1  0  0  0
 16  8  1  0  0  0
  6  1  1  0  0  0
 24 18  1  0  0  0
 16 11  1  0  0  0
 35 30  1  0  0  0
 10 17  1  0  0  0
 27 28  1  0  0  0
 37 38  1  0  0  0
 25 26  1  0  0  0
M  END
> <minimizedAffinity>
-9.98526

> <CNNscore>
0.8697793484

> <CNNaffinity>
8.1150951385

> <CNN_VS>
7.0583419800

> <CNNaffinity_variance>
0.1273320615

$$$$
[H]Oc1c([H])c([H])c(Cl)c([H])c1-c1nc([H])c(N([H])[C@]([H])(c2c([H])c([H])c([H])c([H])c2[H])C([H])([H])O[H])c([H])c1-c1c([H])c([H])c2c(c(C([H])([H])[H])nn2[H])c1[H]


 38 42  0  0  0  0  0  0  0  0999 V2000
   -4.7965   23.7833  -26.6788 C   0  0  0  0  0  0  0  0  0  0  0  0
   -4.9465   23.5776  -25.3232 C   0  0  0  0  0  0  0  0  0  0  0  0
   -6.1666   23.7253  -24.6544 C   0  0  0  0  0  0  0  0  0  0  0  0
   -7.2102   24.0944  -25.4651 C   0  0  0  0  0  0  0  0  0  0  0  0
   -7.0511   24.2951  -26.8025 N   0  0  0  0  0  0  0  0  0  0  0  0
   -5.8804   24.1538  -27.4460 C   0  0  0  0  0  0  0  0  0  0  0  0
    0.1744   21.8221  -25.2392 C   0  0  0  0  0  0  0  0  0  0  0  0
   -0.0085   22.3630  -26.6115 C   0  0  0  0  0  0  0  0  0  0  0  0
    0.8568   22.4719  -27.6336 N   0  0  0  0  0  0  0  0  0  0  0  0
    0.2803   23.0121  -28.6906 N   0  0  0  0  0  0  0  0  0  0  0  0
   -1.0220   23.2951  -28.4200 C   0  0  0  0  0  0  0  0  0  0  0  0
   -2.0417   23.8530  -29.1626 C   0  0  0  0  0  0  0  0  0  0  0  0
   -3.2961   24.0226  -28.6095 C   0  0  0  0  0  0  0  0  0  0  0  0
   -3.4928   23.6230  -27.3112 C   0  0  0  0  0  0  0  0  0  0  0  0
   -2.4537   23.0617  -26.5760 C   0  0  0  0  0  0  0  0  0  0  0  0
   -1.2021   22.8876  -27.1157 C   0  0  0  0  0  0  0  0  0  0  0  0
    0.7121   23.2199  -29.6355 H   0  0  0  0  0  0  0  0  0  0  0  0
   -5.8032   24.3935  -28.8866 C   0  0  0  0  0  0  0  0  0  0  0  0
   -5.8022   25.6942  -29.3260 C   0  0  0  0  0  0  0  0  0  0  0  0
   -5.7299   26.0154  -30.6755 C   0  0  0  0  0  0  0  0  0  0  0  0
   -5.7263   27.6744  -31.2297 Cl  0  0  0  0  0  0  0  0  0  0  0  0
   -5.6581   24.9773  -31.5765 C   0  0  0  0  0  0  0  0  0  0  0  0
   -5.6571   23.6559  -31.1667 C   0  0  0  0  0  0  0  0  0  0  0  0
   -5.7303   23.3877  -29.8187 C   0  0  0  0  0  0  0  0  0  0  0  0
   -5.7306   22.0702  -29.3911 O   0  0  0  0  0  0  0  0  0  0  0  0
   -5.6811   21.2624  -29.9647 H   0  0  0  0  0  0  0  0  0  0  0  0
   -6.2564   23.4900  -23.2580 N   0  0  0  0  0  0  0  0  0  0  0  0
   -5.3114   23.5577  -22.7314 H   0  0  0  0  0  0  0  0  0  0  0  0
   -7.3989   23.1783  -22.4802 C   0  0  0  0  0  0  0  0  0  0  0  0
   -7.9715   24.3783  -21.8478 C   0  0  0  0  0  0  0  0  0  0  0  0
   -9.1097   24.9772  -22.3264 C   0  0  0  0  0  0  0  0  0  0  0  0
   -9.6341   26.1201  -21.7077 C   0  0  0  0  0  0  0  0  0  0  0  0
   -9.0021   26.6584  -20.5996 C   0  0  0  0  0  0  0  0  0  0  0  0
   -7.8508   26.0558  -20.1128 C   0  0  0  0  0  0  0  0  0  0  0  0
   -7.3625   24.9315  -20.7467 C   0  0  0  0  0  0  0  0  0  0  0  0
   -7.1993   22.0217  -21.5228 C   0  0  0  0  0  0  0  0  0  0  0  0
   -8.3607   21.2061  -21.5306 O   0  0  0  0  0  0  0  0  0  0  0  0
   -9.0272   21.5452  -20.9078 H   0  0  0  0  0  0  0  0  0  0  0  0
  7  8  1  0  0  0
  8  9  2  0  0  0
  9 10  1  0  0  0
 10 11  1  0  0  0
 11 12  2  0  0  0
 12 13  1  0  0  0
 13 14  2  0  0  0
 14 15  1  0  0  0
 15 16  2  0  0  0
 14  1  1  0  0  0
  1  2  2  0  0  0
  2  3  1  0  0  0
  3 27  1  0  0  0
 27 29  1  0  0  0
 29 36  1  0  0  0
 36 37  1  0  0  0
 29 30  1  0  0  0
 30 31  2  0  0  0
 31 32  1  0  0  0
 32 33  2  0  0  0
 33 34  1  0  0  0
 34 35  2  0  0  0
  3  4  2  0  0  0
  4  5  1  0  0  0
  5  6  2  0  0  0
  6 18  1  0  0  0
 18 19  2  0  0  0
 19 20  1  0  0  0
 20 21  1  0  0  0
 20 22  2  0  0  0
 22 23  1  0  0  0
 23 24  2  0  0  0
 24 25  1  0  0  0
 16  8  1  0  0  0
  6  1  1  0  0  0
 24 18  1  0  0  0
 16 11  1  0  0  0
 35 30  1  0  0  0
 10 17  1  0  0  0
 27 28  1  0  0  0
 37 38  1  0  0  0
 25 26  1  0  0  0
M  END
> <minimizedAffinity>
-9.89074

> <CNNscore>
0.7813662887

> <CNNaffinity>
7.8681793213

> <CNN_VS>
6.1479301453

> <CNNaffinity_variance>
0.0858988985

$$$$
[H]Oc1c([H])c([H])c(Cl)c([H])c1-c1nc([H])c(N([H])[C@]([H])(c2c([H])c([H])c([H])c([H])c2[H])C([H])([H])O[H])c([H])c1-c1c([H])c([H])c2c(c(C([H])([H])[H])nn2[H])c1[H]


 38 42  0  0  0  0  0  0  0  0999 V2000
   -4.2771   22.5432  -24.1024 C   0  0  0  0  0  0  0  0  0  0  0  0
   -4.6341   21.9186  -22.9256 C   0  0  0  0  0  0  0  0  0  0  0  0
   -5.9452   21.8917  -22.4376 C   0  0  0  0  0  0  0  0  0  0  0  0
   -6.8538   22.5430  -23.2331 C   0  0  0  0  0  0  0  0  0  0  0  0
   -6.4906   23.1567  -24.3931 N   0  0  0  0  0  0  0  0  0  0  0  0
   -5.2323   23.1834  -24.8628 C   0  0  0  0  0  0  0  0  0  0  0  0
   -1.5810   23.0158  -28.9125 C   0  0  0  0  0  0  0  0  0  0  0  0
   -0.7906   22.8307  -27.6675 C   0  0  0  0  0  0  0  0  0  0  0  0
    0.5369   22.7530  -27.4749 N   0  0  0  0  0  0  0  0  0  0  0  0
    0.8243   22.5884  -26.1975 N   0  0  0  0  0  0  0  0  0  0  0  0
   -0.3187   22.5476  -25.4621 C   0  0  0  0  0  0  0  0  0  0  0  0
   -0.5701   22.3970  -24.1142 C   0  0  0  0  0  0  0  0  0  0  0  0
   -1.8683   22.3939  -23.6422 C   0  0  0  0  0  0  0  0  0  0  0  0
   -2.8890   22.5433  -24.5478 C   0  0  0  0  0  0  0  0  0  0  0  0
   -2.6182   22.6945  -25.9040 C   0  0  0  0  0  0  0  0  0  0  0  0
   -1.3311   22.6996  -26.3849 C   0  0  0  0  0  0  0  0  0  0  0  0
    1.7800   22.4954  -25.7498 H   0  0  0  0  0  0  0  0  0  0  0  0
   -4.9343   23.8704  -26.1190 C   0  0  0  0  0  0  0  0  0  0  0  0
   -5.1905   23.2083  -27.2941 C   0  0  0  0  0  0  0  0  0  0  0  0
   -4.9403   23.7840  -28.5333 C   0  0  0  0  0  0  0  0  0  0  0  0
   -5.2711   22.9368  -30.0274 Cl  0  0  0  0  0  0  0  0  0  0  0  0
   -4.4195   25.0579  -28.5526 C   0  0  0  0  0  0  0  0  0  0  0  0
   -4.1497   25.7523  -27.3868 C   0  0  0  0  0  0  0  0  0  0  0  0
   -4.4146   25.1399  -26.1830 C   0  0  0  0  0  0  0  0  0  0  0  0
   -4.1504   25.8209  -25.0061 O   0  0  0  0  0  0  0  0  0  0  0  0
   -3.7782   26.7366  -24.9236 H   0  0  0  0  0  0  0  0  0  0  0  0
   -6.2488   21.2236  -21.2233 N   0  0  0  0  0  0  0  0  0  0  0  0
   -6.3867   20.1533  -21.3241 H   0  0  0  0  0  0  0  0  0  0  0  0
   -6.3977   21.7660  -19.9228 C   0  0  0  0  0  0  0  0  0  0  0  0
   -6.8975   23.1503  -19.9638 C   0  0  0  0  0  0  0  0  0  0  0  0
   -6.0494   24.2288  -19.9327 C   0  0  0  0  0  0  0  0  0  0  0  0
   -6.5500   25.5371  -19.9712 C   0  0  0  0  0  0  0  0  0  0  0  0
   -7.9159   25.7535  -20.0410 C   0  0  0  0  0  0  0  0  0  0  0  0
   -8.7767   24.6654  -20.0724 C   0  0  0  0  0  0  0  0  0  0  0  0
   -8.2491   23.3910  -20.0332 C   0  0  0  0  0  0  0  0  0  0  0  0
   -5.1861   21.5819  -19.0328 C   0  0  0  0  0  0  0  0  0  0  0  0
   -4.3359   20.5986  -19.6025 O   0  0  0  0  0  0  0  0  0  0  0  0
   -4.6105   19.7044  -19.3338 H   0  0  0  0  0  0  0  0  0  0  0  0
  7  8  1  0  0  0
  8  9  2  0  0  0
  9 10  1  0  0  0
 10 11  1  0  0  0
 11 12  2  0  0  0
 12 13  1  0  0  0
 13 14  2  0  0  0
 14 15  1  0  0  0
 15 16  2  0  0  0
 14  1  1  0  0  0
  1  2  2  0  0  0
  2  3  1  0  0  0
  3 27  1  0  0  0
 27 29  1  0  0  0
 29 36  1  0  0  0
 36 37  1  0  0  0
 29 30  1  0  0  0
 30 31  2  0  0  0
 31 32  1  0  0  0
 32 33  2  0  0  0
 33 34  1  0  0  0
 34 35  2  0  0  0
  3  4  2  0  0  0
  4  5  1  0  0  0
  5  6  2  0  0  0
  6 18  1  0  0  0
 18 19  2  0  0  0
 19 20  1  0  0  0
 20 21  1  0  0  0
 20 22  2  0  0  0
 22 23  1  0  0  0
 23 24  2  0  0  0
 24 25  1  0  0  0
 16  8  1  0  0  0
  6  1  1  0  0  0
 24 18  1  0  0  0
 16 11  1  0  0  0
 35 30  1  0  0  0
 10 17  1  0  0  0
 27 28  1  0  0  0
 37 38  1  0  0  0
 25 26  1  0  0  0
M  END
> <minimizedAffinity>
-9.08017

> <CNNscore>
0.7377454042

> <CNNaffinity>
7.3905820847

> <CNN_VS>
5.4523677826

> <CNNaffinity_variance>
0.0292631481

$$$$
[H]Oc1c([H])c([H])c(Cl)c([H])c1-c1nc([H])c(N([H])[C@]([H])(c2c([H])c([H])c([H])c([H])c2[H])C([H])([H])O[H])c([H])c1-c1c([H])c([H])c2c(c(C([H])([H])[H])nn2[H])c1[H]


 38 42  0  0  0  0  0  0  0  0999 V2000
   -3.4296   22.4769  -23.1494 C   0  0  0  0  0  0  0  0  0  0  0  0
   -3.4357   21.6988  -22.0105 C   0  0  0  0  0  0  0  0  0  0  0  0
   -4.5364   21.6027  -21.1520 C   0  0  0  0  0  0  0  0  0  0  0  0
   -5.6181   22.3524  -21.5399 C   0  0  0  0  0  0  0  0  0  0  0  0
   -5.6014   23.1174  -22.6662 N   0  0  0  0  0  0  0  0  0  0  0  0
   -4.5454   23.2107  -23.4914 C   0  0  0  0  0  0  0  0  0  0  0  0
   -2.3461   22.7521  -28.5696 C   0  0  0  0  0  0  0  0  0  0  0  0
   -1.2069   22.7255  -27.6154 C   0  0  0  0  0  0  0  0  0  0  0  0
    0.1189   22.7594  -27.8313 N   0  0  0  0  0  0  0  0  0  0  0  0
    0.7881   22.7196  -26.6946 N   0  0  0  0  0  0  0  0  0  0  0  0
   -0.0748   22.6562  -25.6455 C   0  0  0  0  0  0  0  0  0  0  0  0
    0.1021   22.5973  -24.2788 C   0  0  0  0  0  0  0  0  0  0  0  0
   -0.9902   22.5389  -23.4352 C   0  0  0  0  0  0  0  0  0  0  0  0
   -2.2436   22.5409  -23.9947 C   0  0  0  0  0  0  0  0  0  0  0  0
   -2.4047   22.6011  -25.3752 C   0  0  0  0  0  0  0  0  0  0  0  0
   -1.3258   22.6599  -26.2240 C   0  0  0  0  0  0  0  0  0  0  0  0
    1.8380   22.7320  -26.5540 H   0  0  0  0  0  0  0  0  0  0  0  0
   -4.6172   24.0612  -24.6789 C   0  0  0  0  0  0  0  0  0  0  0  0
   -5.0861   23.5061  -25.8438 C   0  0  0  0  0  0  0  0  0  0  0  0
   -5.1901   24.2392  -27.0190 C   0  0  0  0  0  0  0  0  0  0  0  0
   -5.7907   23.5276  -28.4998 Cl  0  0  0  0  0  0  0  0  0  0  0  0
   -4.8040   25.5599  -26.9847 C   0  0  0  0  0  0  0  0  0  0  0  0
   -4.3272   26.1495  -25.8275 C   0  0  0  0  0  0  0  0  0  0  0  0
   -4.2424   25.3823  -24.6880 C   0  0  0  0  0  0  0  0  0  0  0  0
   -3.7671   25.9568  -23.5206 O   0  0  0  0  0  0  0  0  0  0  0  0
   -3.4687   26.8953  -23.4024 H   0  0  0  0  0  0  0  0  0  0  0  0
   -4.4819   20.7765  -19.9997 N   0  0  0  0  0  0  0  0  0  0  0  0
   -4.2988   19.7289  -20.2088 H   0  0  0  0  0  0  0  0  0  0  0  0
   -4.6389   21.1371  -18.6385 C   0  0  0  0  0  0  0  0  0  0  0  0
   -5.9825   20.8024  -18.1378 C   0  0  0  0  0  0  0  0  0  0  0  0
   -6.7489   19.8222  -18.7167 C   0  0  0  0  0  0  0  0  0  0  0  0
   -8.0258   19.5235  -18.2225 C   0  0  0  0  0  0  0  0  0  0  0  0
   -8.5282   20.2214  -17.1372 C   0  0  0  0  0  0  0  0  0  0  0  0
   -7.7563   21.2134  -16.5492 C   0  0  0  0  0  0  0  0  0  0  0  0
   -6.5033   21.4810  -17.0618 C   0  0  0  0  0  0  0  0  0  0  0  0
   -4.2049   22.5525  -18.3189 C   0  0  0  0  0  0  0  0  0  0  0  0
   -3.0427   22.5098  -17.5054 O   0  0  0  0  0  0  0  0  0  0  0  0
   -3.2798   22.4206  -16.5657 H   0  0  0  0  0  0  0  0  0  0  0  0
  7  8  1  0  0  0
  8  9  2  0  0  0
  9 10  1  0  0  0
 10 11  1  0  0  0
 11 12  2  0  0  0
 12 13  1  0  0  0
 13 14  2  0  0  0
 14 15  1  0  0  0
 15 16  2  0  0  0
 14  1  1  0  0  0
  1  2  2  0  0  0
  2  3  1  0  0  0
  3 27  1  0  0  0
 27 29  1  0  0  0
 29 36  1  0  0  0
 36 37  1  0  0  0
 29 30  1  0  0  0
 30 31  2  0  0  0
 31 32  1  0  0  0
 32 33  2  0  0  0
 33 34  1  0  0  0
 34 35  2  0  0  0
  3  4  2  0  0  0
  4  5  1  0  0  0
  5  6  2  0  0  0
  6 18  1  0  0  0
 18 19  2  0  0  0
 19 20  1  0  0  0
 20 21  1  0  0  0
 20 22  2  0  0  0
 22 23  1  0  0  0
 23 24  2  0  0  0
 24 25  1  0  0  0
 16  8  1  0  0  0
  6  1  1  0  0  0
 24 18  1  0  0  0
 16 11  1  0  0  0
 35 30  1  0  0  0
 10 17  1  0  0  0
 27 28  1  0  0  0
 37 38  1  0  0  0
 25 26  1  0  0  0
M  END
> <minimizedAffinity>
-8.79864

> <CNNscore>
0.6905785203

> <CNNaffinity>
7.2027254105

> <CNN_VS>
4.9740476608

> <CNNaffinity_variance>
0.0788405389

$$$$
[H]Oc1c([H])c([H])c(Cl)c([H])c1-c1nc([H])c(N([H])[C@]([H])(c2c([H])c([H])c([H])c([H])c2[H])C([H])([H])O[H])c([H])c1-c1c([H])c([H])c2c(c(C([H])([H])[H])nn2[H])c1[H]


 38 42  0  0  0  0  0  0  0  0999 V2000
   -3.3287   22.4622  -23.0951 C   0  0  0  0  0  0  0  0  0  0  0  0
   -3.3002   21.6588  -21.9742 C   0  0  0  0  0  0  0  0  0  0  0  0
   -4.3714   21.5488  -21.0808 C   0  0  0  0  0  0  0  0  0  0  0  0
   -5.4617   22.3121  -21.4147 C   0  0  0  0  0  0  0  0  0  0  0  0
   -5.4792   23.1020  -22.5237 N   0  0  0  0  0  0  0  0  0  0  0  0
   -4.4516   23.2087  -23.3823 C   0  0  0  0  0  0  0  0  0  0  0  0
   -2.4271   22.7406  -28.5484 C   0  0  0  0  0  0  0  0  0  0  0  0
   -1.2569   22.7301  -27.6320 C   0  0  0  0  0  0  0  0  0  0  0  0
    0.0605   22.7801  -27.8913 N   0  0  0  0  0  0  0  0  0  0  0  0
    0.7670   22.7509  -26.7771 N   0  0  0  0  0  0  0  0  0  0  0  0
   -0.0601   22.6787  -25.7002 C   0  0  0  0  0  0  0  0  0  0  0  0
    0.1622   22.6246  -24.3400 C   0  0  0  0  0  0  0  0  0  0  0  0
   -0.9010   22.5542  -23.4610 C   0  0  0  0  0  0  0  0  0  0  0  0
   -2.1720   22.5394  -23.9790 C   0  0  0  0  0  0  0  0  0  0  0  0
   -2.3790   22.5949  -25.3536 C   0  0  0  0  0  0  0  0  0  0  0  0
   -1.3293   22.6657  -26.2374 C   0  0  0  0  0  0  0  0  0  0  0  0
    1.8208   22.7768  -26.6711 H   0  0  0  0  0  0  0  0  0  0  0  0
   -4.5592   24.0858  -24.5476 C   0  0  0  0  0  0  0  0  0  0  0  0
   -5.0564   23.5551  -25.7120 C   0  0  0  0  0  0  0  0  0  0  0  0
   -5.1955   24.3144  -26.8669 C   0  0  0  0  0  0  0  0  0  0  0  0
   -5.8320   23.6337  -28.3471 Cl  0  0  0  0  0  0  0  0  0  0  0  0
   -4.8149   25.6360  -26.8123 C   0  0  0  0  0  0  0  0  0  0  0  0
   -4.3101   26.2015  -25.6550 C   0  0  0  0  0  0  0  0  0  0  0  0
   -4.1912   25.4088  -24.5361 C   0  0  0  0  0  0  0  0  0  0  0  0
   -3.6875   25.9589  -23.3689 O   0  0  0  0  0  0  0  0  0  0  0  0
   -3.3906   26.8961  -23.2371 H   0  0  0  0  0  0  0  0  0  0  0  0
   -4.2822   20.6969  -19.9497 N   0  0  0  0  0  0  0  0  0  0  0  0
   -4.8257   19.7643  -20.0482 H   0  0  0  0  0  0  0  0  0  0  0  0
   -3.5925   20.9072  -18.7300 C   0  0  0  0  0  0  0  0  0  0  0  0
   -2.2236   21.4001  -18.9562 C   0  0  0  0  0  0  0  0  0  0  0  0
   -1.2146   20.5709  -19.3778 C   0  0  0  0  0  0  0  0  0  0  0  0
    0.0808   21.0641  -19.5843 C   0  0  0  0  0  0  0  0  0  0  0  0
    0.3549   22.4030  -19.3622 C   0  0  0  0  0  0  0  0  0  0  0  0
   -0.6627   23.2446  -18.9356 C   0  0  0  0  0  0  0  0  0  0  0  0
   -1.9265   22.7251  -18.7426 C   0  0  0  0  0  0  0  0  0  0  0  0
   -3.6685   19.7408  -17.7668 C   0  0  0  0  0  0  0  0  0  0  0  0
   -3.9876   18.5615  -18.4890 O   0  0  0  0  0  0  0  0  0  0  0  0
   -4.9504   18.4720  -18.5997 H   0  0  0  0  0  0  0  0  0  0  0  0
  7  8  1  0  0  0
  8  9  2  0  0  0
  9 10  1  0  0  0
 10 11  1  0  0  0
 11 12  2  0  0  0
 12 13  1  0  0  0
 13 14  2  0  0  0
 14 15  1  0  0  0
 15 16  2  0  0  0
 14  1  1  0  0  0
  1  2  2  0  0  0
  2  3  1  0  0  0
  3 27  1  0  0  0
 27 29  1  0  0  0
 29 36  1  0  0  0
 36 37  1  0  0  0
 29 30  1  0  0  0
 30 31  2  0  0  0
 31 32  1  0  0  0
 32 33  2  0  0  0
 33 34  1  0  0  0
 34 35  2  0  0  0
  3  4  2  0  0  0
  4  5  1  0  0  0
  5  6  2  0  0  0
  6 18  1  0  0  0
 18 19  2  0  0  0
 19 20  1  0  0  0
 20 21  1  0  0  0
 20 22  2  0  0  0
 22 23  1  0  0  0
 23 24  2  0  0  0
 24 25  1  0  0  0
 16  8  1  0  0  0
  6  1  1  0  0  0
 24 18  1  0  0  0
 16 11  1  0  0  0
 35 30  1  0  0  0
 10 17  1  0  0  0
 27 28  1  0  0  0
 37 38  1  0  0  0
 25 26  1  0  0  0
M  END
> <minimizedAffinity>
-9.19063

> <CNNscore>
0.6840651631

> <CNNaffinity>
7.3727807999

> <CNN_VS>
5.0434622765

> <CNNaffinity_variance>
0.0695261061

$$$$
[H]Oc1c([H])c([H])c(Cl)c([H])c1-c1nc([H])c(N([H])[C@]([H])(c2c([H])c([H])c([H])c([H])c2[H])C([H])([H])O[H])c([H])c1-c1c([H])c([H])c2c(c(C([H])([H])[H])nn2[H])c1[H]


 38 42  0  0  0  0  0  0  0  0999 V2000
   -2.4476   22.2083  -23.8996 C   0  0  0  0  0  0  0  0  0  0  0  0
   -2.3859   21.7801  -22.5898 C   0  0  0  0  0  0  0  0  0  0  0  0
   -1.2557   21.1711  -22.0335 C   0  0  0  0  0  0  0  0  0  0  0  0
   -0.2051   21.0341  -22.9054 C   0  0  0  0  0  0  0  0  0  0  0  0
   -0.2768   21.4602  -24.1968 N   0  0  0  0  0  0  0  0  0  0  0  0
   -1.3611   22.0450  -24.7323 C   0  0  0  0  0  0  0  0  0  0  0  0
   -4.1683   27.3228  -25.1286 C   0  0  0  0  0  0  0  0  0  0  0  0
   -5.1040   26.1868  -25.3357 C   0  0  0  0  0  0  0  0  0  0  0  0
   -6.3666   26.1632  -25.7948 N   0  0  0  0  0  0  0  0  0  0  0  0
   -6.8396   24.9316  -25.8255 N   0  0  0  0  0  0  0  0  0  0  0  0
   -5.8981   24.0574  -25.3803 C   0  0  0  0  0  0  0  0  0  0  0  0
   -5.8825   22.6878  -25.2166 C   0  0  0  0  0  0  0  0  0  0  0  0
   -4.7545   22.0555  -24.7309 C   0  0  0  0  0  0  0  0  0  0  0  0
   -3.6617   22.8255  -24.4192 C   0  0  0  0  0  0  0  0  0  0  0  0
   -3.6938   24.2058  -24.5905 C   0  0  0  0  0  0  0  0  0  0  0  0
   -4.8099   24.8455  -25.0732 C   0  0  0  0  0  0  0  0  0  0  0  0
   -7.7985   24.6078  -26.1387 H   0  0  0  0  0  0  0  0  0  0  0  0
   -1.3483   22.4686  -26.1320 C   0  0  0  0  0  0  0  0  0  0  0  0
   -2.5229   22.3977  -26.8393 C   0  0  0  0  0  0  0  0  0  0  0  0
   -2.6040   22.7804  -28.1721 C   0  0  0  0  0  0  0  0  0  0  0  0
   -4.1038   22.6905  -29.0678 Cl  0  0  0  0  0  0  0  0  0  0  0  0
   -1.4559   23.2406  -28.7758 C   0  0  0  0  0  0  0  0  0  0  0  0
   -0.2564   23.3243  -28.0915 C   0  0  0  0  0  0  0  0  0  0  0  0
   -0.2259   22.9335  -26.7722 C   0  0  0  0  0  0  0  0  0  0  0  0
    0.9669   23.0107  -26.0722 O   0  0  0  0  0  0  0  0  0  0  0  0
    1.8386   23.3286  -26.4227 H   0  0  0  0  0  0  0  0  0  0  0  0
   -1.2529   20.7609  -20.6752 N   0  0  0  0  0  0  0  0  0  0  0  0
   -0.8737   19.7588  -20.5114 H   0  0  0  0  0  0  0  0  0  0  0  0
   -1.6793   21.4765  -19.5290 C   0  0  0  0  0  0  0  0  0  0  0  0
   -0.5484   21.8269  -18.6537 C   0  0  0  0  0  0  0  0  0  0  0  0
   -0.4700   21.3831  -17.3574 C   0  0  0  0  0  0  0  0  0  0  0  0
    0.6162   21.7320  -16.5436 C   0  0  0  0  0  0  0  0  0  0  0  0
    1.6270   22.5343  -17.0454 C   0  0  0  0  0  0  0  0  0  0  0  0
    1.5512   22.9851  -18.3557 C   0  0  0  0  0  0  0  0  0  0  0  0
    0.4674   22.6219  -19.1287 C   0  0  0  0  0  0  0  0  0  0  0  0
   -2.8411   20.8375  -18.7970 C   0  0  0  0  0  0  0  0  0  0  0  0
   -3.9191   20.6582  -19.7025 O   0  0  0  0  0  0  0  0  0  0  0  0
   -4.4608   21.4646  -19.7613 H   0  0  0  0  0  0  0  0  0  0  0  0
  7  8  1  0  0  0
  8  9  2  0  0  0
  9 10  1  0  0  0
 10 11  1  0  0  0
 11 12  2  0  0  0
 12 13  1  0  0  0
 13 14  2  0  0  0
 14 15  1  0  0  0
 15 16  2  0  0  0
 14  1  1  0  0  0
  1  2  2  0  0  0
  2  3  1  0  0  0
  3 27  1  0  0  0
 27 29  1  0  0  0
 29 36  1  0  0  0
 36 37  1  0  0  0
 29 30  1  0  0  0
 30 31  2  0  0  0
 31 32  1  0  0  0
 32 33  2  0  0  0
 33 34  1  0  0  0
 34 35  2  0  0  0
  3  4  2  0  0  0
  4  5  1  0  0  0
  5  6  2  0  0  0
  6 18  1  0  0  0
 18 19  2  0  0  0
 19 20  1  0  0  0
 20 21  1  0  0  0
 20 22  2  0  0  0
 22 23  1  0  0  0
 23 24  2  0  0  0
 24 25  1  0  0  0
 16  8  1  0  0  0
  6  1  1  0  0  0
 24 18  1  0  0  0
 16 11  1  0  0  0
 35 30  1  0  0  0
 10 17  1  0  0  0
 27 28  1  0  0  0
 37 38  1  0  0  0
 25 26  1  0  0  0
M  END
> <minimizedAffinity>
-9.41462

> <CNNscore>
0.6407434344

> <CNNaffinity>
7.3687105179

> <CNN_VS>
4.7214527130

> <CNNaffinity_variance>
0.1146176234

$$$$
[H]Oc1c([H])c([H])c(Cl)c([H])c1-c1nc([H])c(N([H])[C@]([H])(c2c([H])c([H])c([H])c([H])c2[H])C([H])([H])O[H])c([H])c1-c1c([H])c([H])c2c(c(C([H])([H])[H])nn2[H])c1[H]


 38 42  0  0  0  0  0  0  0  0999 V2000
   -5.0155   23.5662  -26.2123 C   0  0  0  0  0  0  0  0  0  0  0  0
   -5.3839   23.2146  -24.9304 C   0  0  0  0  0  0  0  0  0  0  0  0
   -6.6395   23.5046  -24.3854 C   0  0  0  0  0  0  0  0  0  0  0  0
   -7.4812   24.1727  -25.2386 C   0  0  0  0  0  0  0  0  0  0  0  0
   -7.1073   24.5153  -26.5023 N   0  0  0  0  0  0  0  0  0  0  0  0
   -5.9022   24.2376  -27.0269 C   0  0  0  0  0  0  0  0  0  0  0  0
   -0.1387   22.0815  -24.0580 C   0  0  0  0  0  0  0  0  0  0  0  0
   -0.2514   22.2287  -25.5327 C   0  0  0  0  0  0  0  0  0  0  0  0
    0.6617   22.0576  -26.5034 N   0  0  0  0  0  0  0  0  0  0  0  0
    0.1410   22.2888  -27.6937 N   0  0  0  0  0  0  0  0  0  0  0  0
   -1.1693   22.6317  -27.5727 C   0  0  0  0  0  0  0  0  0  0  0  0
   -2.1472   22.9644  -28.4869 C   0  0  0  0  0  0  0  0  0  0  0  0
   -3.4241   23.2751  -28.0613 C   0  0  0  0  0  0  0  0  0  0  0  0
   -3.6855   23.2431  -26.7142 C   0  0  0  0  0  0  0  0  0  0  0  0
   -2.6879   22.9051  -25.8054 C   0  0  0  0  0  0  0  0  0  0  0  0
   -1.4145   22.5937  -26.2170 C   0  0  0  0  0  0  0  0  0  0  0  0
    0.6186   22.2329  -28.6377 H   0  0  0  0  0  0  0  0  0  0  0  0
   -5.5871   24.6476  -28.3949 C   0  0  0  0  0  0  0  0  0  0  0  0
   -5.8794   23.7756  -29.4142 C   0  0  0  0  0  0  0  0  0  0  0  0
   -5.6164   24.0819  -30.7433 C   0  0  0  0  0  0  0  0  0  0  0  0
   -5.9932   22.9682  -32.0384 Cl  0  0  0  0  0  0  0  0  0  0  0  0
   -5.0451   25.3040  -31.0165 C   0  0  0  0  0  0  0  0  0  0  0  0
   -4.7381   26.2052  -30.0127 C   0  0  0  0  0  0  0  0  0  0  0  0
   -5.0175   25.8565  -28.7109 C   0  0  0  0  0  0  0  0  0  0  0  0
   -4.7164   26.7470  -27.6935 O   0  0  0  0  0  0  0  0  0  0  0  0
   -4.3072   27.6448  -27.7954 H   0  0  0  0  0  0  0  0  0  0  0  0
   -6.9600   23.1072  -23.0616 N   0  0  0  0  0  0  0  0  0  0  0  0
   -7.1148   22.0413  -22.9396 H   0  0  0  0  0  0  0  0  0  0  0  0
   -7.1066   23.9094  -21.9029 C   0  0  0  0  0  0  0  0  0  0  0  0
   -8.5226   24.0957  -21.5447 C   0  0  0  0  0  0  0  0  0  0  0  0
   -9.1417   23.3122  -20.6034 C   0  0  0  0  0  0  0  0  0  0  0  0
  -10.4914   23.5083  -20.2813 C   0  0  0  0  0  0  0  0  0  0  0  0
  -11.2167   24.5024  -20.9160 C   0  0  0  0  0  0  0  0  0  0  0  0
  -10.5942   25.2966  -21.8686 C   0  0  0  0  0  0  0  0  0  0  0  0
   -9.2637   25.0758  -22.1608 C   0  0  0  0  0  0  0  0  0  0  0  0
   -6.3124   25.1986  -21.9380 C   0  0  0  0  0  0  0  0  0  0  0  0
   -5.9717   25.5710  -20.6115 O   0  0  0  0  0  0  0  0  0  0  0  0
   -6.6907   26.0802  -20.1983 H   0  0  0  0  0  0  0  0  0  0  0  0
  7  8  1  0  0  0
  8  9  2  0  0  0
  9 10  1  0  0  0
 10 11  1  0  0  0
 11 12  2  0  0  0
 12 13  1  0  0  0
 13 14  2  0  0  0
 14 15  1  0  0  0
 15 16  2  0  0  0
 14  1  1  0  0  0
  1  2  2  0  0  0
  2  3  1  0  0  0
  3 27  1  0  0  0
 27 29  1  0  0  0
 29 36  1  0  0  0
 36 37  1  0  0  0
 29 30  1  0  0  0
 30 31  2  0  0  0
 31 32  1  0  0  0
 32 33  2  0  0  0
 33 34  1  0  0  0
 34 35  2  0  0  0
  3  4  2  0  0  0
  4  5  1  0  0  0
  5  6  2  0  0  0
  6 18  1  0  0  0
 18 19  2  0  0  0
 19 20  1  0  0  0
 20 21  1  0  0  0
 20 22  2  0  0  0
 22 23  1  0  0  0
 23 24  2  0  0  0
 24 25  1  0  0  0
 16  8  1  0  0  0
  6  1  1  0  0  0
 24 18  1  0  0  0
 16 11  1  0  0  0
 35 30  1  0  0  0
 10 17  1  0  0  0
 27 28  1  0  0  0
 37 38  1  0  0  0
 25 26  1  0  0  0
M  END
> <minimizedAffinity>
-10.39522

> <CNNscore>
0.6401016712

> <CNNaffinity>
7.6165075302

> <CNN_VS>
4.8753390312

> <CNNaffinity_variance>
0.1099534184

$$$$
[H]Oc1c([H])c([H])c(Cl)c([H])c1-c1nc([H])c(N([H])[C@]([H])(c2c([H])c([H])c([H])c([H])c2[H])C([H])([H])O[H])c([H])c1-c1c([H])c([H])c2c(c(C([H])([H])[H])nn2[H])c1[H]


 38 42  0  0  0  0  0  0  0  0999 V2000
   -3.7180   22.4564  -22.9218 C   0  0  0  0  0  0  0  0  0  0  0  0
   -3.6391   21.6195  -21.8282 C   0  0  0  0  0  0  0  0  0  0  0  0
   -4.6473   21.5202  -20.8630 C   0  0  0  0  0  0  0  0  0  0  0  0
   -5.7298   22.3304  -21.0963 C   0  0  0  0  0  0  0  0  0  0  0  0
   -5.7973   23.1531  -22.1792 N   0  0  0  0  0  0  0  0  0  0  0  0
   -4.8303   23.2497  -23.1066 C   0  0  0  0  0  0  0  0  0  0  0  0
   -3.1978   22.8023  -28.4208 C   0  0  0  0  0  0  0  0  0  0  0  0
   -1.9664   22.7481  -27.5902 C   0  0  0  0  0  0  0  0  0  0  0  0
   -0.6698   22.7701  -27.9419 N   0  0  0  0  0  0  0  0  0  0  0  0
    0.1129   22.7052  -26.8814 N   0  0  0  0  0  0  0  0  0  0  0  0
   -0.6375   22.6356  -25.7495 C   0  0  0  0  0  0  0  0  0  0  0  0
   -0.3209   22.5537  -24.4095 C   0  0  0  0  0  0  0  0  0  0  0  0
   -1.3207   22.4949  -23.4581 C   0  0  0  0  0  0  0  0  0  0  0  0
   -2.6252   22.5198  -23.8846 C   0  0  0  0  0  0  0  0  0  0  0  0
   -2.9275   22.6030  -25.2400 C   0  0  0  0  0  0  0  0  0  0  0  0
   -1.9415   22.6625  -26.1951 C   0  0  0  0  0  0  0  0  0  0  0  0
    1.1718   22.7035  -26.8503 H   0  0  0  0  0  0  0  0  0  0  0  0
   -4.9884   24.1643  -24.2368 C   0  0  0  0  0  0  0  0  0  0  0  0
   -4.3475   25.3772  -24.1809 C   0  0  0  0  0  0  0  0  0  0  0  0
   -4.4400   26.3068  -25.2089 C   0  0  0  0  0  0  0  0  0  0  0  0
   -3.6192   27.8497  -25.1337 Cl  0  0  0  0  0  0  0  0  0  0  0  0
   -5.2044   25.9744  -26.3042 C   0  0  0  0  0  0  0  0  0  0  0  0
   -5.8630   24.7609  -26.3916 C   0  0  0  0  0  0  0  0  0  0  0  0
   -5.7411   23.8724  -25.3476 C   0  0  0  0  0  0  0  0  0  0  0  0
   -6.3940   22.6528  -25.4188 O   0  0  0  0  0  0  0  0  0  0  0  0
   -6.9623   22.3290  -26.1644 H   0  0  0  0  0  0  0  0  0  0  0  0
   -4.5090   20.6323  -19.7649 N   0  0  0  0  0  0  0  0  0  0  0  0
   -4.9716   19.6633  -19.9123 H   0  0  0  0  0  0  0  0  0  0  0  0
   -3.8618   20.8477  -18.5230 C   0  0  0  0  0  0  0  0  0  0  0  0
   -4.5455   21.8780  -17.7237 C   0  0  0  0  0  0  0  0  0  0  0  0
   -3.8950   23.0019  -17.2800 C   0  0  0  0  0  0  0  0  0  0  0  0
   -4.5677   23.9675  -16.5191 C   0  0  0  0  0  0  0  0  0  0  0  0
   -5.9052   23.7931  -16.2062 C   0  0  0  0  0  0  0  0  0  0  0  0
   -6.5664   22.6577  -16.6529 C   0  0  0  0  0  0  0  0  0  0  0  0
   -5.8730   21.7277  -17.4002 C   0  0  0  0  0  0  0  0  0  0  0  0
   -2.3654   21.0551  -18.6325 C   0  0  0  0  0  0  0  0  0  0  0  0
   -1.7701   19.8784  -19.1569 O   0  0  0  0  0  0  0  0  0  0  0  0
   -1.5821   19.2388  -18.4479 H   0  0  0  0  0  0  0  0  0  0  0  0
  7  8  1  0  0  0
  8  9  2  0  0  0
  9 10  1  0  0  0
 10 11  1  0  0  0
 11 12  2  0  0  0
 12 13  1  0  0  0
 13 14  2  0  0  0
 14 15  1  0  0  0
 15 16  2  0  0  0
 14  1  1  0  0  0
  1  2  2  0  0  0
  2  3  1  0  0  0
  3 27  1  0  0  0
 27 29  1  0  0  0
 29 36  1  0  0  0
 36 37  1  0  0  0
 29 30  1  0  0  0
 30 31  2  0  0  0
 31 32  1  0  0  0
 32 33  2  0  0  0
 33 34  1  0  0  0
 34 35  2  0  0  0
  3  4  2  0  0  0
  4  5  1  0  0  0
  5  6  2  0  0  0
  6 18  1  0  0  0
 18 19  2  0  0  0
 19 20  1  0  0  0
 20 21  1  0  0  0
 20 22  2  0  0  0
 22 23  1  0  0  0
 23 24  2  0  0  0
 24 25  1  0  0  0
 16  8  1  0  0  0
  6  1  1  0  0  0
 24 18  1  0  0  0
 16 11  1  0  0  0
 35 30  1  0  0  0
 10 17  1  0  0  0
 27 28  1  0  0  0
 37 38  1  0  0  0
 25 26  1  0  0  0
M  END
> <minimizedAffinity>
-8.31170

> <CNNscore>
0.4585764408

> <CNNaffinity>
6.9922933578

> <CNN_VS>
3.2065010071

> <CNNaffinity_variance>
0.1654818356

$$$$
[H]Oc1c([H])c([H])c(Cl)c([H])c1-c1nc([H])c(N([H])[C@]([H])(c2c([H])c([H])c([H])c([H])c2[H])C([H])([H])O[H])c([H])c1-c1c([H])c([H])c2c(c(C([H])([H])[H])nn2[H])c1[H]


 38 42  0  0  0  0  0  0  0  0999 V2000
   -2.7937   22.4172  -23.1666 C   0  0  0  0  0  0  0  0  0  0  0  0
   -3.0576   22.1734  -21.8349 C   0  0  0  0  0  0  0  0  0  0  0  0
   -2.1254   21.6070  -20.9585 C   0  0  0  0  0  0  0  0  0  0  0  0
   -0.9171   21.3121  -21.5379 C   0  0  0  0  0  0  0  0  0  0  0  0
   -0.6671   21.5567  -22.8539 N   0  0  0  0  0  0  0  0  0  0  0  0
   -1.5610   22.1003  -23.6965 C   0  0  0  0  0  0  0  0  0  0  0  0
   -4.0295   27.4398  -25.1352 C   0  0  0  0  0  0  0  0  0  0  0  0
   -4.8990   26.2937  -25.5092 C   0  0  0  0  0  0  0  0  0  0  0  0
   -5.9955   26.2411  -26.2839 N   0  0  0  0  0  0  0  0  0  0  0  0
   -6.4672   25.0110  -26.3593 N   0  0  0  0  0  0  0  0  0  0  0  0
   -5.6938   24.1673  -25.6250 C   0  0  0  0  0  0  0  0  0  0  0  0
   -5.7484   22.8119  -25.3750 C   0  0  0  0  0  0  0  0  0  0  0  0
   -4.8013   22.2121  -24.5679 C   0  0  0  0  0  0  0  0  0  0  0  0
   -3.8152   22.9998  -24.0282 C   0  0  0  0  0  0  0  0  0  0  0  0
   -3.7743   24.3654  -24.2906 C   0  0  0  0  0  0  0  0  0  0  0  0
   -4.7105   24.9728  -25.0921 C   0  0  0  0  0  0  0  0  0  0  0  0
   -7.3153   24.6682  -26.8939 H   0  0  0  0  0  0  0  0  0  0  0  0
   -1.2048   22.3243  -25.0971 C   0  0  0  0  0  0  0  0  0  0  0  0
   -2.2107   22.3018  -26.0312 C   0  0  0  0  0  0  0  0  0  0  0  0
   -1.9649   22.5063  -27.3830 C   0  0  0  0  0  0  0  0  0  0  0  0
   -3.2506   22.4792  -28.5686 Cl  0  0  0  0  0  0  0  0  0  0  0  0
   -0.6636   22.7360  -27.7682 C   0  0  0  0  0  0  0  0  0  0  0  0
    0.3729   22.7649  -26.8524 C   0  0  0  0  0  0  0  0  0  0  0  0
    0.0796   22.5568  -25.5239 C   0  0  0  0  0  0  0  0  0  0  0  0
    1.1055   22.5823  -24.5935 O   0  0  0  0  0  0  0  0  0  0  0  0
    2.0672   22.7404  -24.7780 H   0  0  0  0  0  0  0  0  0  0  0  0
   -2.4563   21.3899  -19.5960 N   0  0  0  0  0  0  0  0  0  0  0  0
   -1.6229   21.4954  -18.9110 H   0  0  0  0  0  0  0  0  0  0  0  0
   -3.7100   21.0538  -19.0277 C   0  0  0  0  0  0  0  0  0  0  0  0
   -4.3481   22.2169  -18.3890 C   0  0  0  0  0  0  0  0  0  0  0  0
   -5.4112   22.8673  -18.9635 C   0  0  0  0  0  0  0  0  0  0  0  0
   -6.0002   23.9734  -18.3362 C   0  0  0  0  0  0  0  0  0  0  0  0
   -5.5096   24.4224  -17.1218 C   0  0  0  0  0  0  0  0  0  0  0  0
   -4.4345   23.7675  -16.5378 C   0  0  0  0  0  0  0  0  0  0  0  0
   -3.8792   22.6815  -17.1833 C   0  0  0  0  0  0  0  0  0  0  0  0
   -3.6818   19.8177  -18.1529 C   0  0  0  0  0  0  0  0  0  0  0  0
   -4.3151   18.7485  -18.8384 O   0  0  0  0  0  0  0  0  0  0  0  0
   -5.2780   18.7682  -18.6983 H   0  0  0  0  0  0  0  0  0  0  0  0
  7  8  1  0  0  0
  8  9  2  0  0  0
  9 10  1  0  0  0
 10 11  1  0  0  0
 11 12  2  0  0  0
 12 13  1  0  0  0
 13 14  2  0  0  0
 14 15  1  0  0  0
 15 16  2  0  0  0
 14  1  1  0  0  0
  1  2  2  0  0  0
  2  3  1  0  0  0
  3 27  1  0  0  0
 27 29  1  0  0  0
 29 36  1  0  0  0
 36 37  1  0  0  0
 29 30  1  0  0  0
 30 31  2  0  0  0
 31 32  1  0  0  0
 32 33  2  0  0  0
 33 34  1  0  0  0
 34 35  2  0  0  0
  3  4  2  0  0  0
  4  5  1  0  0  0
  5  6  2  0  0  0
  6 18  1  0  0  0
 18 19  2  0  0  0
 19 20  1  0  0  0
 20 21  1  0  0  0
 20 22  2  0  0  0
 22 23  1  0  0  0
 23 24  2  0  0  0
 24 25  1  0  0  0
 16  8  1  0  0  0
  6  1  1  0  0  0
 24 18  1  0  0  0
 16 11  1  0  0  0
 35 30  1  0  0  0
 10 17  1  0  0  0
 27 28  1  0  0  0
 37 38  1  0  0  0
 25 26  1  0  0  0
M  END
> <minimizedAffinity>
-9.10582

> <CNNscore>
0.3546335995

> <CNNaffinity>
7.0657362938

> <CNN_VS>
2.5057475567

> <CNNaffinity_variance>
0.1327309757

$$$$
[H]Oc1c([H])c([H])c(F)c([H])c1-c1nc([H])c(N([H])[C@]([H])(c2c([H])c([H])c([H])c([H])c2[H])C([H])([H])O[H])c([H])c1-c1c([H])c([H])c2c(c(C([H])([H])[H])nn2[H])c1[H]


 38 42  0  0  0  0  0  0  0  0999 V2000
   -4.7761   23.2516  -26.3366 C   0  0  0  0  0  0  0  0  0  0  0  0
   -5.0107   22.7997  -25.0530 C   0  0  0  0  0  0  0  0  0  0  0  0
   -6.2869   22.9135  -24.4810 C   0  0  0  0  0  0  0  0  0  0  0  0
   -7.2941   23.4843  -25.2295 C   0  0  0  0  0  0  0  0  0  0  0  0
   -7.0606   23.9161  -26.4624 N   0  0  0  0  0  0  0  0  0  0  0  0
   -5.8183   23.8046  -27.0176 C   0  0  0  0  0  0  0  0  0  0  0  0
    0.3427   21.9515  -24.7365 C   0  0  0  0  0  0  0  0  0  0  0  0
    0.1259   22.2985  -26.1552 C   0  0  0  0  0  0  0  0  0  0  0  0
    0.9701   22.3670  -27.1937 N   0  0  0  0  0  0  0  0  0  0  0  0
    0.3453   22.7252  -28.3127 N   0  0  0  0  0  0  0  0  0  0  0  0
   -0.9674   22.9122  -28.0519 C   0  0  0  0  0  0  0  0  0  0  0  0
   -2.0483   23.2852  -28.8420 C   0  0  0  0  0  0  0  0  0  0  0  0
   -3.3066   23.4013  -28.2954 C   0  0  0  0  0  0  0  0  0  0  0  0
   -3.4658   23.1399  -26.9555 C   0  0  0  0  0  0  0  0  0  0  0  0
   -2.3587   22.7636  -26.1728 C   0  0  0  0  0  0  0  0  0  0  0  0
   -1.1129   22.6483  -26.7096 C   0  0  0  0  0  0  0  0  0  0  0  0
    0.7534   22.8587  -29.2777 H   0  0  0  0  0  0  0  0  0  0  0  0
   -5.6793   24.2898  -28.3648 C   0  0  0  0  0  0  0  0  0  0  0  0
   -5.8000   23.4327  -29.4276 C   0  0  0  0  0  0  0  0  0  0  0  0
   -5.6751   23.9205  -30.7348 C   0  0  0  0  0  0  0  0  0  0  0  0
   -5.7931   23.0834  -31.7920 F   0  0  0  0  0  0  0  0  0  0  0  0
   -5.4331   25.2495  -30.9697 C   0  0  0  0  0  0  0  0  0  0  0  0
   -5.3141   26.0984  -29.8976 C   0  0  0  0  0  0  0  0  0  0  0  0
   -5.4374   25.6142  -28.6015 C   0  0  0  0  0  0  0  0  0  0  0  0
   -5.3075   26.5102  -27.5488 O   0  0  0  0  0  0  0  0  0  0  0  0
   -5.3645   26.2987  -26.5770 H   0  0  0  0  0  0  0  0  0  0  0  0
   -6.5307   22.4577  -23.1734 N   0  0  0  0  0  0  0  0  0  0  0  0
   -7.1547   21.5984  -23.0918 H   0  0  0  0  0  0  0  0  0  0  0  0
   -6.0264   23.0272  -21.9581 C   0  0  0  0  0  0  0  0  0  0  0  0
   -4.5304   22.9889  -21.9619 C   0  0  0  0  0  0  0  0  0  0  0  0
   -3.8548   21.8149  -21.7088 C   0  0  0  0  0  0  0  0  0  0  0  0
   -2.4842   21.7839  -21.7146 C   0  0  0  0  0  0  0  0  0  0  0  0
   -1.7515   22.9227  -21.9728 C   0  0  0  0  0  0  0  0  0  0  0  0
   -2.4312   24.1199  -22.2309 C   0  0  0  0  0  0  0  0  0  0  0  0
   -3.7982   24.1240  -22.2192 C   0  0  0  0  0  0  0  0  0  0  0  0
   -6.4856   22.3203  -20.7049 C   0  0  0  0  0  0  0  0  0  0  0  0
   -7.3558   21.2723  -21.0740 O   0  0  0  0  0  0  0  0  0  0  0  0
   -7.1079   20.4359  -20.5617 H   0  0  0  0  0  0  0  0  0  0  0  0
  7  8  1  0  0  0
  8  9  2  0  0  0
  9 10  1  0  0  0
 10 11  1  0  0  0
 11 12  2  0  0  0
 12 13  1  0  0  0
 13 14  2  0  0  0
 14 15  1  0  0  0
 15 16  2  0  0  0
 14  1  1  0  0  0
  1  2  2  0  0  0
  2  3  1  0  0  0
  3 27  1  0  0  0
 27 29  1  0  0  0
 29 36  1  0  0  0
 36 37  1  0  0  0
 29 30  1  0  0  0
 30 31  2  0  0  0
 31 32  1  0  0  0
 32 33  2  0  0  0
 33 34  1  0  0  0
 34 35  2  0  0  0
  3  4  2  0  0  0
  4  5  1  0  0  0
  5  6  2  0  0  0
  6 18  1  0  0  0
 18 19  2  0  0  0
 19 20  1  0  0  0
 20 21  1  0  0  0
 20 22  2  0  0  0
 22 23  1  0  0  0
 23 24  2  0  0  0
 24 25  1  0  0  0
 16  8  1  0  0  0
  6  1  1  0  0  0
 24 18  1  0  0  0
 16 11  1  0  0  0
 35 30  1  0  0  0
 10 17  1  0  0  0
 27 28  1  0  0  0
 37 38  1  0  0  0
 25 26  1  0  0  0
M  END
> <minimizedAffinity>
-10.70936

> <CNNscore>
0.9778973460

> <CNNaffinity>
8.2118759155

> <CNN_VS>
8.0303716660

> <CNNaffinity_variance>
0.0639314577

$$$$
[H]Oc1c([H])c([H])c(F)c([H])c1-c1nc([H])c(N([H])[C@]([H])(c2c([H])c([H])c([H])c([H])c2[H])C([H])([H])O[H])c([H])c1-c1c([H])c([H])c2c(c(C([H])([H])[H])nn2[H])c1[H]


 38 42  0  0  0  0  0  0  0  0999 V2000
   -4.9800   23.4661  -26.0092 C   0  0  0  0  0  0  0  0  0  0  0  0
   -5.3336   23.1484  -24.7127 C   0  0  0  0  0  0  0  0  0  0  0  0
   -6.6224   23.4337  -24.2367 C   0  0  0  0  0  0  0  0  0  0  0  0
   -7.5206   24.0353  -25.0921 C   0  0  0  0  0  0  0  0  0  0  0  0
   -7.1731   24.3374  -26.3367 N   0  0  0  0  0  0  0  0  0  0  0  0
   -5.9187   24.0591  -26.7983 C   0  0  0  0  0  0  0  0  0  0  0  0
   -0.0846   21.9528  -23.9601 C   0  0  0  0  0  0  0  0  0  0  0  0
   -0.1967   22.1457  -25.4196 C   0  0  0  0  0  0  0  0  0  0  0  0
    0.7028   22.0217  -26.4053 N   0  0  0  0  0  0  0  0  0  0  0  0
    0.1703   22.2943  -27.5941 N   0  0  0  0  0  0  0  0  0  0  0  0
   -1.1325   22.6170  -27.4374 C   0  0  0  0  0  0  0  0  0  0  0  0
   -2.1343   22.9804  -28.3298 C   0  0  0  0  0  0  0  0  0  0  0  0
   -3.4039   23.2625  -27.8783 C   0  0  0  0  0  0  0  0  0  0  0  0
   -3.6544   23.1756  -26.5296 C   0  0  0  0  0  0  0  0  0  0  0  0
   -2.6265   22.8060  -25.6427 C   0  0  0  0  0  0  0  0  0  0  0  0
   -1.3696   22.5269  -26.0853 C   0  0  0  0  0  0  0  0  0  0  0  0
    0.6378   22.2788  -28.5411 H   0  0  0  0  0  0  0  0  0  0  0  0
   -5.6529   24.4138  -28.1670 C   0  0  0  0  0  0  0  0  0  0  0  0
   -5.7930   23.4847  -29.1650 C   0  0  0  0  0  0  0  0  0  0  0  0
   -5.5433   23.8466  -30.4950 C   0  0  0  0  0  0  0  0  0  0  0  0
   -5.6791   22.9377  -31.4888 F   0  0  0  0  0  0  0  0  0  0  0  0
   -5.1592   25.1230  -30.8166 C   0  0  0  0  0  0  0  0  0  0  0  0
   -5.0221   26.0449  -29.8089 C   0  0  0  0  0  0  0  0  0  0  0  0
   -5.2692   25.6854  -28.4900 C   0  0  0  0  0  0  0  0  0  0  0  0
   -5.1156   26.6513  -27.5045 O   0  0  0  0  0  0  0  0  0  0  0  0
   -5.2508   26.5289  -26.5251 H   0  0  0  0  0  0  0  0  0  0  0  0
   -6.9870   23.1151  -22.9167 N   0  0  0  0  0  0  0  0  0  0  0  0
   -7.1376   22.0800  -22.7153 H   0  0  0  0  0  0  0  0  0  0  0  0
   -7.1703   24.0340  -21.8314 C   0  0  0  0  0  0  0  0  0  0  0  0
   -8.6313   24.2542  -21.5938 C   0  0  0  0  0  0  0  0  0  0  0  0
   -9.3115   25.2500  -22.2606 C   0  0  0  0  0  0  0  0  0  0  0  0
  -10.6502   25.4475  -22.0410 C   0  0  0  0  0  0  0  0  0  0  0  0
  -11.3457   24.6575  -21.1507 C   0  0  0  0  0  0  0  0  0  0  0  0
  -10.6610   23.6433  -20.4691 C   0  0  0  0  0  0  0  0  0  0  0  0
   -9.3262   23.4670  -20.7060 C   0  0  0  0  0  0  0  0  0  0  0  0
   -6.5472   25.3913  -22.0564 C   0  0  0  0  0  0  0  0  0  0  0  0
   -5.2983   25.4262  -21.4000 O   0  0  0  0  0  0  0  0  0  0  0  0
   -4.6072   25.8313  -22.0179 H   0  0  0  0  0  0  0  0  0  0  0  0
  7  8  1  0  0  0
  8  9  2  0  0  0
  9 10  1  0  0  0
 10 11  1  0  0  0
 11 12  2  0  0  0
 12 13  1  0  0  0
 13 14  2  0  0  0
 14 15  1  0  0  0
 15 16  2  0  0  0
 14  1  1  0  0  0
  1  2  2  0  0  0
  2  3  1  0  0  0
  3 27  1  0  0  0
 27 29  1  0  0  0
 29 36  1  0  0  0
 36 37  1  0  0  0
 29 30  1  0  0  0
 30 31  2  0  0  0
 31 32  1  0  0  0
 32 33  2  0  0  0
 33 34  1  0  0  0
 34 35  2  0  0  0
  3  4  2  0  0  0
  4  5  1  0  0  0
  5  6  2  0  0  0
  6 18  1  0  0  0
 18 19  2  0  0  0
 19 20  1  0  0  0
 20 21  1  0  0  0
 20 22  2  0  0  0
 22 23  1  0  0  0
 23 24  2  0  0  0
 24 25  1  0  0  0
 16  8  1  0  0  0
  6  1  1  0  0  0
 24 18  1  0  0  0
 16 11  1  0  0  0
 35 30  1  0  0  0
 10 17  1  0  0  0
 27 28  1  0  0  0
 37 38  1  0  0  0
 25 26  1  0  0  0
M  END
> <minimizedAffinity>
-11.24009

> <CNNscore>
0.7521914840

> <CNNaffinity>
7.6898851395

> <CNN_VS>
5.7842659950

> <CNNaffinity_variance>
0.0937832221

$$$$
[H]Oc1c([H])c([H])c(F)c([H])c1-c1nc([H])c(N([H])[C@]([H])(c2c([H])c([H])c([H])c([H])c2[H])C([H])([H])O[H])c([H])c1-c1c([H])c([H])c2c(c(C([H])([H])[H])nn2[H])c1[H]


 38 42  0  0  0  0  0  0  0  0999 V2000
   -5.0292   23.6410  -25.8860 C   0  0  0  0  0  0  0  0  0  0  0  0
   -5.3972   23.4286  -24.5721 C   0  0  0  0  0  0  0  0  0  0  0  0
   -6.6799   23.7826  -24.1266 C   0  0  0  0  0  0  0  0  0  0  0  0
   -7.5574   24.3441  -25.0294 C   0  0  0  0  0  0  0  0  0  0  0  0
   -7.1961   24.5450  -26.2904 N   0  0  0  0  0  0  0  0  0  0  0  0
   -5.9477   24.1999  -26.7224 C   0  0  0  0  0  0  0  0  0  0  0  0
   -0.2759   21.8567  -23.7238 C   0  0  0  0  0  0  0  0  0  0  0  0
   -0.3421   22.0564  -25.1852 C   0  0  0  0  0  0  0  0  0  0  0  0
    0.5724   21.8832  -26.1494 N   0  0  0  0  0  0  0  0  0  0  0  0
    0.0845   22.1858  -27.3501 N   0  0  0  0  0  0  0  0  0  0  0  0
   -1.2017   22.5804  -27.2238 C   0  0  0  0  0  0  0  0  0  0  0  0
   -2.1602   22.9994  -28.1391 C   0  0  0  0  0  0  0  0  0  0  0  0
   -3.4227   23.3513  -27.7174 C   0  0  0  0  0  0  0  0  0  0  0  0
   -3.7097   23.2777  -26.3753 C   0  0  0  0  0  0  0  0  0  0  0  0
   -2.7254   22.8509  -25.4648 C   0  0  0  0  0  0  0  0  0  0  0  0
   -1.4758   22.5027  -25.8779 C   0  0  0  0  0  0  0  0  0  0  0  0
    0.5729   22.1449  -28.2857 H   0  0  0  0  0  0  0  0  0  0  0  0
   -5.6662   24.4464  -28.1116 C   0  0  0  0  0  0  0  0  0  0  0  0
   -5.7856   23.4392  -29.0337 C   0  0  0  0  0  0  0  0  0  0  0  0
   -5.5208   23.6959  -30.3851 C   0  0  0  0  0  0  0  0  0  0  0  0
   -5.6361   22.7092  -31.3045 F   0  0  0  0  0  0  0  0  0  0  0  0
   -5.1421   24.9457  -30.8028 C   0  0  0  0  0  0  0  0  0  0  0  0
   -5.0258   25.9464  -29.8704 C   0  0  0  0  0  0  0  0  0  0  0  0
   -5.2880   25.6914  -28.5303 C   0  0  0  0  0  0  0  0  0  0  0  0
   -5.1551   26.7343  -27.6234 O   0  0  0  0  0  0  0  0  0  0  0  0
   -5.3026   26.6894  -26.6392 H   0  0  0  0  0  0  0  0  0  0  0  0
   -7.0589   23.5713  -22.7892 N   0  0  0  0  0  0  0  0  0  0  0  0
   -7.5039   22.6268  -22.5782 H   0  0  0  0  0  0  0  0  0  0  0  0
   -6.9045   24.4886  -21.6982 C   0  0  0  0  0  0  0  0  0  0  0  0
   -6.8095   23.7337  -20.4096 C   0  0  0  0  0  0  0  0  0  0  0  0
   -6.8886   22.3582  -20.3912 C   0  0  0  0  0  0  0  0  0  0  0  0
   -6.7997   21.6703  -19.2086 C   0  0  0  0  0  0  0  0  0  0  0  0
   -6.6297   22.3361  -18.0135 C   0  0  0  0  0  0  0  0  0  0  0  0
   -6.5485   23.7344  -18.0242 C   0  0  0  0  0  0  0  0  0  0  0  0
   -6.6401   24.3965  -19.2168 C   0  0  0  0  0  0  0  0  0  0  0  0
   -8.0389   25.4751  -21.5525 C   0  0  0  0  0  0  0  0  0  0  0  0
   -7.5476   26.7684  -21.8315 O   0  0  0  0  0  0  0  0  0  0  0  0
   -8.1961   27.2477  -22.4424 H   0  0  0  0  0  0  0  0  0  0  0  0
  7  8  1  0  0  0
  8  9  2  0  0  0
  9 10  1  0  0  0
 10 11  1  0  0  0
 11 12  2  0  0  0
 12 13  1  0  0  0
 13 14  2  0  0  0
 14 15  1  0  0  0
 15 16  2  0  0  0
 14  1  1  0  0  0
  1  2  2  0  0  0
  2  3  1  0  0  0
  3 27  1  0  0  0
 27 29  1  0  0  0
 29 36  1  0  0  0
 36 37  1  0  0  0
 29 30  1  0  0  0
 30 31  2  0  0  0
 31 32  1  0  0  0
 32 33  2  0  0  0
 33 34  1  0  0  0
 34 35  2  0  0  0
  3  4  2  0  0  0
  4  5  1  0  0  0
  5  6  2  0  0  0
  6 18  1  0  0  0
 18 19  2  0  0  0
 19 20  1  0  0  0
 20 21  1  0  0  0
 20 22  2  0  0  0
 22 23  1  0  0  0
 23 24  2  0  0  0
 24 25  1  0  0  0
 16  8  1  0  0  0
  6  1  1  0  0  0
 24 18  1  0  0  0
 16 11  1  0  0  0
 35 30  1  0  0  0
 10 17  1  0  0  0
 27 28  1  0  0  0
 37 38  1  0  0  0
 25 26  1  0  0  0
M  END
> <minimizedAffinity>
-10.59367

> <CNNscore>
0.7277430296

> <CNNaffinity>
7.6777343750

> <CNN_VS>
5.5874176025

> <CNNaffinity_variance>
0.1624212861

$$$$
[H]Oc1c([H])c([H])c(F)c([H])c1-c1nc([H])c(N([H])[C@]([H])(c2c([H])c([H])c([H])c([H])c2[H])C([H])([H])O[H])c([H])c1-c1c([H])c([H])c2c(c(C([H])([H])[H])nn2[H])c1[H]


 38 42  0  0  0  0  0  0  0  0999 V2000
   -5.0567   23.6018  -25.3632 C   0  0  0  0  0  0  0  0  0  0  0  0
   -5.4519   23.6102  -24.0401 C   0  0  0  0  0  0  0  0  0  0  0  0
   -6.7276   24.0716  -23.6816 C   0  0  0  0  0  0  0  0  0  0  0  0
   -7.5708   24.5132  -24.6788 C   0  0  0  0  0  0  0  0  0  0  0  0
   -7.1837   24.5019  -25.9480 N   0  0  0  0  0  0  0  0  0  0  0  0
   -5.9420   24.0525  -26.2952 C   0  0  0  0  0  0  0  0  0  0  0  0
   -1.5715   24.4176  -29.5634 C   0  0  0  0  0  0  0  0  0  0  0  0
   -1.1672   23.4786  -28.4982 C   0  0  0  0  0  0  0  0  0  0  0  0
   -0.0609   22.7398  -28.3358 N   0  0  0  0  0  0  0  0  0  0  0  0
   -0.1089   22.0218  -27.2163 N   0  0  0  0  0  0  0  0  0  0  0  0
   -1.2762   22.2632  -26.5798 C   0  0  0  0  0  0  0  0  0  0  0  0
   -1.8278   21.7874  -25.3959 C   0  0  0  0  0  0  0  0  0  0  0  0
   -3.0683   22.2165  -24.9808 C   0  0  0  0  0  0  0  0  0  0  0  0
   -3.7438   23.1230  -25.7626 C   0  0  0  0  0  0  0  0  0  0  0  0
   -3.1681   23.5924  -26.9576 C   0  0  0  0  0  0  0  0  0  0  0  0
   -1.9419   23.1700  -27.3717 C   0  0  0  0  0  0  0  0  0  0  0  0
    0.6149   21.3544  -26.8338 H   0  0  0  0  0  0  0  0  0  0  0  0
   -5.6310   24.0687  -27.6998 C   0  0  0  0  0  0  0  0  0  0  0  0
   -5.5380   22.8965  -28.4041 C   0  0  0  0  0  0  0  0  0  0  0  0
   -5.2471   22.9270  -29.7740 C   0  0  0  0  0  0  0  0  0  0  0  0
   -5.1535   21.7758  -30.4797 F   0  0  0  0  0  0  0  0  0  0  0  0
   -5.0530   24.1177  -30.4257 C   0  0  0  0  0  0  0  0  0  0  0  0
   -5.1485   25.2852  -29.7101 C   0  0  0  0  0  0  0  0  0  0  0  0
   -5.4365   25.2544  -28.3515 C   0  0  0  0  0  0  0  0  0  0  0  0
   -5.5211   26.4606  -27.6690 O   0  0  0  0  0  0  0  0  0  0  0  0
   -5.7112   26.5832  -26.6988 H   0  0  0  0  0  0  0  0  0  0  0  0
   -7.1341   24.0852  -22.3357 N   0  0  0  0  0  0  0  0  0  0  0  0
   -6.3781   24.3305  -21.6266 H   0  0  0  0  0  0  0  0  0  0  0  0
   -8.4479   23.8078  -21.8332 C   0  0  0  0  0  0  0  0  0  0  0  0
   -9.1713   25.0907  -21.5674 C   0  0  0  0  0  0  0  0  0  0  0  0
  -10.3680   25.3674  -22.1919 C   0  0  0  0  0  0  0  0  0  0  0  0
  -11.0280   26.5432  -21.9447 C   0  0  0  0  0  0  0  0  0  0  0  0
  -10.5120   27.4739  -21.0684 C   0  0  0  0  0  0  0  0  0  0  0  0
   -9.2959   27.1997  -20.4298 C   0  0  0  0  0  0  0  0  0  0  0  0
   -8.6576   26.0199  -20.6937 C   0  0  0  0  0  0  0  0  0  0  0  0
   -8.4654   23.0136  -20.5486 C   0  0  0  0  0  0  0  0  0  0  0  0
   -9.0196   21.7431  -20.8139 O   0  0  0  0  0  0  0  0  0  0  0  0
   -8.4501   21.0317  -20.3745 H   0  0  0  0  0  0  0  0  0  0  0  0
  7  8  1  0  0  0
  8  9  2  0  0  0
  9 10  1  0  0  0
 10 11  1  0  0  0
 11 12  2  0  0  0
 12 13  1  0  0  0
 13 14  2  0  0  0
 14 15  1  0  0  0
 15 16  2  0  0  0
 14  1  1  0  0  0
  1  2  2  0  0  0
  2  3  1  0  0  0
  3 27  1  0  0  0
 27 29  1  0  0  0
 29 36  1  0  0  0
 36 37  1  0  0  0
 29 30  1  0  0  0
 30 31  2  0  0  0
 31 32  1  0  0  0
 32 33  2  0  0  0
 33 34  1  0  0  0
 34 35  2  0  0  0
  3  4  2  0  0  0
  4  5  1  0  0  0
  5  6  2  0  0  0
  6 18  1  0  0  0
 18 19  2  0  0  0
 19 20  1  0  0  0
 20 21  1  0  0  0
 20 22  2  0  0  0
 22 23  1  0  0  0
 23 24  2  0  0  0
 24 25  1  0  0  0
 16  8  1  0  0  0
  6  1  1  0  0  0
 24 18  1  0  0  0
 16 11  1  0  0  0
 35 30  1  0  0  0
 10 17  1  0  0  0
 27 28  1  0  0  0
 37 38  1  0  0  0
 25 26  1  0  0  0
M  END
> <minimizedAffinity>
-9.35933

> <CNNscore>
0.6280215979

> <CNNaffinity>
7.4184646606

> <CNN_VS>
4.6589560509

> <CNNaffinity_variance>
0.0643618554

$$$$
[H]Oc1c([H])c([H])c(F)c([H])c1-c1nc([H])c(N([H])[C@]([H])(c2c([H])c([H])c([H])c([H])c2[H])C([H])([H])O[H])c([H])c1-c1c([H])c([H])c2c(c(C([H])([H])[H])nn2[H])c1[H]


 38 42  0  0  0  0  0  0  0  0999 V2000
   -4.7144   23.7587  -25.0578 C   0  0  0  0  0  0  0  0  0  0  0  0
   -4.9728   23.8084  -23.7022 C   0  0  0  0  0  0  0  0  0  0  0  0
   -6.2011   24.2951  -23.2295 C   0  0  0  0  0  0  0  0  0  0  0  0
   -7.1373   24.7192  -24.1483 C   0  0  0  0  0  0  0  0  0  0  0  0
   -6.8814   24.6682  -25.4494 N   0  0  0  0  0  0  0  0  0  0  0  0
   -5.6858   24.1943  -25.9077 C   0  0  0  0  0  0  0  0  0  0  0  0
   -1.6657   24.4184  -29.6101 C   0  0  0  0  0  0  0  0  0  0  0  0
   -1.1645   23.5033  -28.5655 C   0  0  0  0  0  0  0  0  0  0  0  0
   -0.0546   22.7555  -28.4953 N   0  0  0  0  0  0  0  0  0  0  0  0
    0.0043   22.0684  -27.3571 N   0  0  0  0  0  0  0  0  0  0  0  0
   -1.0900   22.3412  -26.6127 C   0  0  0  0  0  0  0  0  0  0  0  0
   -1.5231   21.9042  -25.3663 C   0  0  0  0  0  0  0  0  0  0  0  0
   -2.7109   22.3597  -24.8400 C   0  0  0  0  0  0  0  0  0  0  0  0
   -3.4535   23.2531  -25.5744 C   0  0  0  0  0  0  0  0  0  0  0  0
   -2.9975   23.6832  -26.8342 C   0  0  0  0  0  0  0  0  0  0  0  0
   -1.8238   23.2346  -27.3583 C   0  0  0  0  0  0  0  0  0  0  0  0
    0.7568   21.4026  -27.0313 H   0  0  0  0  0  0  0  0  0  0  0  0
   -5.5191   24.1680  -27.3365 C   0  0  0  0  0  0  0  0  0  0  0  0
   -5.4918   22.9749  -28.0106 C   0  0  0  0  0  0  0  0  0  0  0  0
   -5.3418   22.9639  -29.4033 C   0  0  0  0  0  0  0  0  0  0  0  0
   -5.3141   21.7917  -30.0796 F   0  0  0  0  0  0  0  0  0  0  0  0
   -5.2213   24.1344  -30.1072 C   0  0  0  0  0  0  0  0  0  0  0  0
   -5.2499   25.3232  -29.4214 C   0  0  0  0  0  0  0  0  0  0  0  0
   -5.3983   25.3335  -28.0403 C   0  0  0  0  0  0  0  0  0  0  0  0
   -5.4197   26.5600  -27.3897 O   0  0  0  0  0  0  0  0  0  0  0  0
   -5.5108   26.7119  -26.4094 H   0  0  0  0  0  0  0  0  0  0  0  0
   -6.4683   24.3507  -21.8503 N   0  0  0  0  0  0  0  0  0  0  0  0
   -6.3045   25.2948  -21.3850 H   0  0  0  0  0  0  0  0  0  0  0  0
   -6.9355   23.2772  -21.0226 C   0  0  0  0  0  0  0  0  0  0  0  0
   -6.2427   23.3198  -19.6968 C   0  0  0  0  0  0  0  0  0  0  0  0
   -6.7263   24.1062  -18.6739 C   0  0  0  0  0  0  0  0  0  0  0  0
   -6.0894   24.1413  -17.4603 C   0  0  0  0  0  0  0  0  0  0  0  0
   -4.9536   23.3932  -17.2352 C   0  0  0  0  0  0  0  0  0  0  0  0
   -4.4559   22.5915  -18.2702 C   0  0  0  0  0  0  0  0  0  0  0  0
   -5.1096   22.5742  -19.4708 C   0  0  0  0  0  0  0  0  0  0  0  0
   -6.7028   21.9017  -21.6014 C   0  0  0  0  0  0  0  0  0  0  0  0
   -7.9538   21.2755  -21.7874 O   0  0  0  0  0  0  0  0  0  0  0  0
   -7.9781   20.8421  -22.7013 H   0  0  0  0  0  0  0  0  0  0  0  0
  7  8  1  0  0  0
  8  9  2  0  0  0
  9 10  1  0  0  0
 10 11  1  0  0  0
 11 12  2  0  0  0
 12 13  1  0  0  0
 13 14  2  0  0  0
 14 15  1  0  0  0
 15 16  2  0  0  0
 14  1  1  0  0  0
  1  2  2  0  0  0
  2  3  1  0  0  0
  3 27  1  0  0  0
 27 29  1  0  0  0
 29 36  1  0  0  0
 36 37  1  0  0  0
 29 30  1  0  0  0
 30 31  2  0  0  0
 31 32  1  0  0  0
 32 33  2  0  0  0
 33 34  1  0  0  0
 34 35  2  0  0  0
  3  4  2  0  0  0
  4  5  1  0  0  0
  5  6  2  0  0  0
  6 18  1  0  0  0
 18 19  2  0  0  0
 19 20  1  0  0  0
 20 21  1  0  0  0
 20 22  2  0  0  0
 22 23  1  0  0  0
 23 24  2  0  0  0
 24 25  1  0  0  0
 16  8  1  0  0  0
  6  1  1  0  0  0
 24 18  1  0  0  0
 16 11  1  0  0  0
 35 30  1  0  0  0
 10 17  1  0  0  0
 27 28  1  0  0  0
 37 38  1  0  0  0
 25 26  1  0  0  0
M  END
> <minimizedAffinity>
-8.88888

> <CNNscore>
0.5948147774

> <CNNaffinity>
7.3488755226

> <CNN_VS>
4.3712196350

> <CNNaffinity_variance>
0.1255113780

$$$$
[H]Oc1c([H])c([H])c(F)c([H])c1-c1nc([H])c(N([H])[C@]([H])(c2c([H])c([H])c([H])c([H])c2[H])C([H])([H])O[H])c([H])c1-c1c([H])c([H])c2c(c(C([H])([H])[H])nn2[H])c1[H]


 38 42  0  0  0  0  0  0  0  0999 V2000
   -3.3313   22.4368  -23.0541 C   0  0  0  0  0  0  0  0  0  0  0  0
   -3.2800   21.6659  -21.9095 C   0  0  0  0  0  0  0  0  0  0  0  0
   -4.3787   21.6116  -21.0385 C   0  0  0  0  0  0  0  0  0  0  0  0
   -5.5038   22.3433  -21.3536 C   0  0  0  0  0  0  0  0  0  0  0  0
   -5.5454   23.0817  -22.4554 N   0  0  0  0  0  0  0  0  0  0  0  0
   -4.4754   23.1333  -23.3020 C   0  0  0  0  0  0  0  0  0  0  0  0
   -2.6166   22.7506  -28.5170 C   0  0  0  0  0  0  0  0  0  0  0  0
   -1.4145   22.7207  -27.6602 C   0  0  0  0  0  0  0  0  0  0  0  0
   -0.1083   22.7549  -27.9579 N   0  0  0  0  0  0  0  0  0  0  0  0
    0.6471   22.7053  -26.8634 N   0  0  0  0  0  0  0  0  0  0  0  0
   -0.1487   22.6344  -25.7735 C   0  0  0  0  0  0  0  0  0  0  0  0
    0.1131   22.5619  -24.4103 C   0  0  0  0  0  0  0  0  0  0  0  0
   -0.9201   22.4967  -23.5027 C   0  0  0  0  0  0  0  0  0  0  0  0
   -2.2103   22.5055  -23.9766 C   0  0  0  0  0  0  0  0  0  0  0  0
   -2.4541   22.5795  -25.3604 C   0  0  0  0  0  0  0  0  0  0  0  0
   -1.4351   22.6436  -26.2610 C   0  0  0  0  0  0  0  0  0  0  0  0
    1.7009   22.7159  -26.7929 H   0  0  0  0  0  0  0  0  0  0  0  0
   -4.6329   23.9516  -24.4748 C   0  0  0  0  0  0  0  0  0  0  0  0
   -5.1618   23.4238  -25.6239 C   0  0  0  0  0  0  0  0  0  0  0  0
   -5.3216   24.2348  -26.7549 C   0  0  0  0  0  0  0  0  0  0  0  0
   -5.8433   23.7246  -27.8949 F   0  0  0  0  0  0  0  0  0  0  0  0
   -4.9556   25.5560  -26.7306 C   0  0  0  0  0  0  0  0  0  0  0  0
   -4.4271   26.0735  -25.5742 C   0  0  0  0  0  0  0  0  0  0  0  0
   -4.2683   25.2688  -24.4532 C   0  0  0  0  0  0  0  0  0  0  0  0
   -3.7276   25.8359  -23.3069 O   0  0  0  0  0  0  0  0  0  0  0  0
   -3.5521   25.3754  -22.4411 H   0  0  0  0  0  0  0  0  0  0  0  0
   -4.3308   20.8307  -19.8702 N   0  0  0  0  0  0  0  0  0  0  0  0
   -3.4291   20.2854  -19.7150 H   0  0  0  0  0  0  0  0  0  0  0  0
   -5.3611   20.7014  -18.8815 C   0  0  0  0  0  0  0  0  0  0  0  0
   -4.9991   21.4935  -17.6645 C   0  0  0  0  0  0  0  0  0  0  0  0
   -5.0756   20.9308  -16.4090 C   0  0  0  0  0  0  0  0  0  0  0  0
   -4.7418   21.6595  -15.2968 C   0  0  0  0  0  0  0  0  0  0  0  0
   -4.3232   22.9683  -15.4073 C   0  0  0  0  0  0  0  0  0  0  0  0
   -4.2431   23.5472  -16.6803 C   0  0  0  0  0  0  0  0  0  0  0  0
   -4.5816   22.7991  -17.7733 C   0  0  0  0  0  0  0  0  0  0  0  0
   -5.6120   19.2823  -18.4296 C   0  0  0  0  0  0  0  0  0  0  0  0
   -4.5264   18.4810  -18.8431 O   0  0  0  0  0  0  0  0  0  0  0  0
   -4.2397   17.8854  -18.0772 H   0  0  0  0  0  0  0  0  0  0  0  0
  7  8  1  0  0  0
  8  9  2  0  0  0
  9 10  1  0  0  0
 10 11  1  0  0  0
 11 12  2  0  0  0
 12 13  1  0  0  0
 13 14  2  0  0  0
 14 15  1  0  0  0
 15 16  2  0  0  0
 14  1  1  0  0  0
  1  2  2  0  0  0
  2  3  1  0  0  0
  3 27  1  0  0  0
 27 29  1  0  0  0
 29 36  1  0  0  0
 36 37  1  0  0  0
 29 30  1  0  0  0
 30 31  2  0  0  0
 31 32  1  0  0  0
 32 33  2  0  0  0
 33 34  1  0  0  0
 34 35  2  0  0  0
  3  4  2  0  0  0
  4  5  1  0  0  0
  5  6  2  0  0  0
  6 18  1  0  0  0
 18 19  2  0  0  0
 19 20  1  0  0  0
 20 21  1  0  0  0
 20 22  2  0  0  0
 22 23  1  0  0  0
 23 24  2  0  0  0
 24 25  1  0  0  0
 16  8  1  0  0  0
  6  1  1  0  0  0
 24 18  1  0  0  0
 16 11  1  0  0  0
 35 30  1  0  0  0
 10 17  1  0  0  0
 27 28  1  0  0  0
 37 38  1  0  0  0
 25 26  1  0  0  0
M  END
> <minimizedAffinity>
-8.82605

> <CNNscore>
0.5414732695

> <CNNaffinity>
6.9664673805

> <CNN_VS>
3.7721557617

> <CNNaffinity_variance>
0.1110734567

$$$$
[H]Oc1c([H])c([H])c(F)c([H])c1-c1nc([H])c(N([H])[C@]([H])(c2c([H])c([H])c([H])c([H])c2[H])C([H])([H])O[H])c([H])c1-c1c([H])c([H])c2c(c(C([H])([H])[H])nn2[H])c1[H]


 38 42  0  0  0  0  0  0  0  0999 V2000
   -4.5748   22.8559  -23.2103 C   0  0  0  0  0  0  0  0  0  0  0  0
   -4.8250   21.9773  -22.1748 C   0  0  0  0  0  0  0  0  0  0  0  0
   -6.0106   22.0740  -21.4306 C   0  0  0  0  0  0  0  0  0  0  0  0
   -6.9135   23.0628  -21.7586 C   0  0  0  0  0  0  0  0  0  0  0  0
   -6.6657   23.9033  -22.7551 N   0  0  0  0  0  0  0  0  0  0  0  0
   -5.5116   23.8078  -23.4784 C   0  0  0  0  0  0  0  0  0  0  0  0
   -3.2401   22.8111  -28.5647 C   0  0  0  0  0  0  0  0  0  0  0  0
   -2.1473   22.7188  -27.5761 C   0  0  0  0  0  0  0  0  0  0  0  0
   -0.8192   22.6191  -27.7243 N   0  0  0  0  0  0  0  0  0  0  0  0
   -0.1962   22.5602  -26.5498 N   0  0  0  0  0  0  0  0  0  0  0  0
   -1.1095   22.6198  -25.5556 C   0  0  0  0  0  0  0  0  0  0  0  0
   -1.0066   22.5970  -24.1696 C   0  0  0  0  0  0  0  0  0  0  0  0
   -2.1344   22.6740  -23.3836 C   0  0  0  0  0  0  0  0  0  0  0  0
   -3.3582   22.7738  -24.0013 C   0  0  0  0  0  0  0  0  0  0  0  0
   -3.4409   22.7953  -25.4057 C   0  0  0  0  0  0  0  0  0  0  0  0
   -2.3281   22.7188  -26.1863 C   0  0  0  0  0  0  0  0  0  0  0  0
    0.8397   22.4794  -26.3602 H   0  0  0  0  0  0  0  0  0  0  0  0
   -5.3512   24.7586  -24.5461 C   0  0  0  0  0  0  0  0  0  0  0  0
   -4.5497   25.8584  -24.3821 C   0  0  0  0  0  0  0  0  0  0  0  0
   -4.3920   26.7697  -25.4343 C   0  0  0  0  0  0  0  0  0  0  0  0
   -3.6026   27.8589  -25.2839 F   0  0  0  0  0  0  0  0  0  0  0  0
   -5.0300   26.5779  -26.6327 C   0  0  0  0  0  0  0  0  0  0  0  0
   -5.8301   25.4730  -26.7854 C   0  0  0  0  0  0  0  0  0  0  0  0
   -5.9866   24.5698  -25.7416 C   0  0  0  0  0  0  0  0  0  0  0  0
   -6.8075   23.4680  -25.9418 O   0  0  0  0  0  0  0  0  0  0  0  0
   -7.0136   22.7517  -25.2809 H   0  0  0  0  0  0  0  0  0  0  0  0
   -6.2692   21.1839  -20.3734 N   0  0  0  0  0  0  0  0  0  0  0  0
   -7.0304   20.4608  -20.5531 H   0  0  0  0  0  0  0  0  0  0  0  0
   -5.6159   21.1540  -19.0975 C   0  0  0  0  0  0  0  0  0  0  0  0
   -6.3718   20.2647  -18.1607 C   0  0  0  0  0  0  0  0  0  0  0  0
   -7.5127   19.6123  -18.5748 C   0  0  0  0  0  0  0  0  0  0  0  0
   -8.2014   18.7974  -17.7138 C   0  0  0  0  0  0  0  0  0  0  0  0
   -7.7705   18.6119  -16.4176 C   0  0  0  0  0  0  0  0  0  0  0  0
   -6.6116   19.2718  -15.9894 C   0  0  0  0  0  0  0  0  0  0  0  0
   -5.9432   20.0788  -16.8675 C   0  0  0  0  0  0  0  0  0  0  0  0
   -5.4972   22.5036  -18.4300 C   0  0  0  0  0  0  0  0  0  0  0  0
   -4.1791   22.9766  -18.6052 O   0  0  0  0  0  0  0  0  0  0  0  0
   -4.2072   23.9479  -18.8870 H   0  0  0  0  0  0  0  0  0  0  0  0
  7  8  1  0  0  0
  8  9  2  0  0  0
  9 10  1  0  0  0
 10 11  1  0  0  0
 11 12  2  0  0  0
 12 13  1  0  0  0
 13 14  2  0  0  0
 14 15  1  0  0  0
 15 16  2  0  0  0
 14  1  1  0  0  0
  1  2  2  0  0  0
  2  3  1  0  0  0
  3 27  1  0  0  0
 27 29  1  0  0  0
 29 36  1  0  0  0
 36 37  1  0  0  0
 29 30  1  0  0  0
 30 31  2  0  0  0
 31 32  1  0  0  0
 32 33  2  0  0  0
 33 34  1  0  0  0
 34 35  2  0  0  0
  3  4  2  0  0  0
  4  5  1  0  0  0
  5  6  2  0  0  0
  6 18  1  0  0  0
 18 19  2  0  0  0
 19 20  1  0  0  0
 20 21  1  0  0  0
 20 22  2  0  0  0
 22 23  1  0  0  0
 23 24  2  0  0  0
 24 25  1  0  0  0
 16  8  1  0  0  0
  6  1  1  0  0  0
 24 18  1  0  0  0
 16 11  1  0  0  0
 35 30  1  0  0  0
 10 17  1  0  0  0
 27 28  1  0  0  0
 37 38  1  0  0  0
 25 26  1  0  0  0
M  END
> <minimizedAffinity>
-8.16139

> <CNNscore>
0.4725211859

> <CNNaffinity>
6.9558115005

> <CNN_VS>
3.2867681980

> <CNNaffinity_variance>
0.2637958229

$$$$
[H]Oc1c([H])c([H])c(F)c([H])c1-c1nc([H])c(N([H])[C@]([H])(c2c([H])c([H])c([H])c([H])c2[H])C([H])([H])O[H])c([H])c1-c1c([H])c([H])c2c(c(C([H])([H])[H])nn2[H])c1[H]


 38 42  0  0  0  0  0  0  0  0999 V2000
   -4.2730   22.7007  -23.0621 C   0  0  0  0  0  0  0  0  0  0  0  0
   -4.2398   21.6934  -22.1180 C   0  0  0  0  0  0  0  0  0  0  0  0
   -4.9835   21.8041  -20.9333 C   0  0  0  0  0  0  0  0  0  0  0  0
   -5.7436   22.9375  -20.7380 C   0  0  0  0  0  0  0  0  0  0  0  0
   -5.7702   23.9011  -21.6500 N   0  0  0  0  0  0  0  0  0  0  0  0
   -5.0461   23.7918  -22.8023 C   0  0  0  0  0  0  0  0  0  0  0  0
    1.0070   22.0475  -24.5276 C   0  0  0  0  0  0  0  0  0  0  0  0
   -0.0003   22.1753  -25.5995 C   0  0  0  0  0  0  0  0  0  0  0  0
    0.1148   22.1656  -26.9347 N   0  0  0  0  0  0  0  0  0  0  0  0
   -1.0656   22.3137  -27.5312 N   0  0  0  0  0  0  0  0  0  0  0  0
   -2.0300   22.4301  -26.5918 C   0  0  0  0  0  0  0  0  0  0  0  0
   -3.4074   22.6022  -26.6621 C   0  0  0  0  0  0  0  0  0  0  0  0
   -4.1600   22.6928  -25.5127 C   0  0  0  0  0  0  0  0  0  0  0  0
   -3.5179   22.6086  -24.3004 C   0  0  0  0  0  0  0  0  0  0  0  0
   -2.1225   22.4342  -24.2509 C   0  0  0  0  0  0  0  0  0  0  0  0
   -1.3749   22.3449  -25.3851 C   0  0  0  0  0  0  0  0  0  0  0  0
   -1.2785   22.3436  -28.5653 H   0  0  0  0  0  0  0  0  0  0  0  0
   -5.1595   24.8861  -23.7293 C   0  0  0  0  0  0  0  0  0  0  0  0
   -4.1777   25.8399  -23.8014 C   0  0  0  0  0  0  0  0  0  0  0  0
   -4.2944   26.8933  -24.7174 C   0  0  0  0  0  0  0  0  0  0  0  0
   -3.3308   27.8404  -24.7978 F   0  0  0  0  0  0  0  0  0  0  0  0
   -5.3812   26.9859  -25.5483 C   0  0  0  0  0  0  0  0  0  0  0  0
   -6.3581   26.0251  -25.4672 C   0  0  0  0  0  0  0  0  0  0  0  0
   -6.2423   24.9810  -24.5583 C   0  0  0  0  0  0  0  0  0  0  0  0
   -7.2563   24.0337  -24.5110 O   0  0  0  0  0  0  0  0  0  0  0  0
   -7.3049   23.2438  -23.9059 H   0  0  0  0  0  0  0  0  0  0  0  0
   -4.9511   20.7829  -19.9674 N   0  0  0  0  0  0  0  0  0  0  0  0
   -4.6617   19.8207  -20.3209 H   0  0  0  0  0  0  0  0  0  0  0  0
   -5.2625   20.9097  -18.5736 C   0  0  0  0  0  0  0  0  0  0  0  0
   -4.2840   20.1213  -17.7609 C   0  0  0  0  0  0  0  0  0  0  0  0
   -4.0676   18.7854  -18.0197 C   0  0  0  0  0  0  0  0  0  0  0  0
   -3.1692   18.0671  -17.2737 C   0  0  0  0  0  0  0  0  0  0  0  0
   -2.4633   18.6622  -16.2500 C   0  0  0  0  0  0  0  0  0  0  0  0
   -2.6780   20.0199  -15.9808 C   0  0  0  0  0  0  0  0  0  0  0  0
   -3.5793   20.7136  -16.7394 C   0  0  0  0  0  0  0  0  0  0  0  0
   -6.6431   20.4243  -18.2001 C   0  0  0  0  0  0  0  0  0  0  0  0
   -7.1398   19.6291  -19.2549 O   0  0  0  0  0  0  0  0  0  0  0  0
   -7.5516   18.7873  -18.8737 H   0  0  0  0  0  0  0  0  0  0  0  0
  7  8  1  0  0  0
  8  9  2  0  0  0
  9 10  1  0  0  0
 10 11  1  0  0  0
 11 12  2  0  0  0
 12 13  1  0  0  0
 13 14  2  0  0  0
 14 15  1  0  0  0
 15 16  2  0  0  0
 14  1  1  0  0  0
  1  2  2  0  0  0
  2  3  1  0  0  0
  3 27  1  0  0  0
 27 29  1  0  0  0
 29 36  1  0  0  0
 36 37  1  0  0  0
 29 30  1  0  0  0
 30 31  2  0  0  0
 31 32  1  0  0  0
 32 33  2  0  0  0
 33 34  1  0  0  0
 34 35  2  0  0  0
  3  4  2  0  0  0
  4  5  1  0  0  0
  5  6  2  0  0  0
  6 18  1  0  0  0
 18 19  2  0  0  0
 19 20  1  0  0  0
 20 21  1  0  0  0
 20 22  2  0  0  0
 22 23  1  0  0  0
 23 24  2  0  0  0
 24 25  1  0  0  0
 16  8  1  0  0  0
  6  1  1  0  0  0
 24 18  1  0  0  0
 16 11  1  0  0  0
 35 30  1  0  0  0
 10 17  1  0  0  0
 27 28  1  0  0  0
 37 38  1  0  0  0
 25 26  1  0  0  0
M  END
> <minimizedAffinity>
-7.96157

> <CNNscore>
0.4337580800

> <CNNaffinity>
6.8406686783

> <CNN_VS>
2.9671952724

> <CNNaffinity_variance>
0.1366133988

$$$$
[H]Oc1c([H])c([H])c(F)c([H])c1-c1nc([H])c(N([H])[C@]([H])(c2c([H])c([H])c([H])c([H])c2[H])C([H])([H])O[H])c([H])c1-c1c([H])c([H])c2c(c(C([H])([H])[H])nn2[H])c1[H]


 38 42  0  0  0  0  0  0  0  0999 V2000
   -4.1547   22.7190  -23.0079 C   0  0  0  0  0  0  0  0  0  0  0  0
   -4.0505   21.7089  -22.0719 C   0  0  0  0  0  0  0  0  0  0  0  0
   -4.7188   21.8071  -20.8420 C   0  0  0  0  0  0  0  0  0  0  0  0
   -5.4775   22.9312  -20.5944 C   0  0  0  0  0  0  0  0  0  0  0  0
   -5.5726   23.8974  -21.4989 N   0  0  0  0  0  0  0  0  0  0  0  0
   -4.9218   23.8003  -22.6952 C   0  0  0  0  0  0  0  0  0  0  0  0
    1.0363   22.2033  -24.8081 C   0  0  0  0  0  0  0  0  0  0  0  0
   -0.0411   22.2957  -25.8133 C   0  0  0  0  0  0  0  0  0  0  0  0
   -0.0121   22.2802  -27.1531 N   0  0  0  0  0  0  0  0  0  0  0  0
   -1.2321   22.3914  -27.6728 N   0  0  0  0  0  0  0  0  0  0  0  0
   -2.1369   22.4872  -26.6738 C   0  0  0  0  0  0  0  0  0  0  0  0
   -3.5204   22.6204  -26.6557 C   0  0  0  0  0  0  0  0  0  0  0  0
   -4.1996   22.6977  -25.4607 C   0  0  0  0  0  0  0  0  0  0  0  0
   -3.4786   22.6396  -24.2920 C   0  0  0  0  0  0  0  0  0  0  0  0
   -2.0785   22.5045  -24.3318 C   0  0  0  0  0  0  0  0  0  0  0  0
   -1.4033   22.4284  -25.5115 C   0  0  0  0  0  0  0  0  0  0  0  0
   -1.5120   22.4084  -28.6912 H   0  0  0  0  0  0  0  0  0  0  0  0
   -5.1060   24.8964  -23.6088 C   0  0  0  0  0  0  0  0  0  0  0  0
   -4.1171   25.8295  -23.7823 C   0  0  0  0  0  0  0  0  0  0  0  0
   -4.3042   26.8847  -24.6844 C   0  0  0  0  0  0  0  0  0  0  0  0
   -3.3343   27.8116  -24.8644 F   0  0  0  0  0  0  0  0  0  0  0  0
   -5.4674   26.9996  -25.4012 C   0  0  0  0  0  0  0  0  0  0  0  0
   -6.4507   26.0593  -25.2192 C   0  0  0  0  0  0  0  0  0  0  0  0
   -6.2649   25.0134  -24.3240 C   0  0  0  0  0  0  0  0  0  0  0  0
   -7.2884   24.0874  -24.1719 O   0  0  0  0  0  0  0  0  0  0  0  0
   -7.2917   23.2990  -23.5630 H   0  0  0  0  0  0  0  0  0  0  0  0
   -4.6139   20.7832  -19.8843 N   0  0  0  0  0  0  0  0  0  0  0  0
   -5.3211   19.9917  -19.9739 H   0  0  0  0  0  0  0  0  0  0  0  0
   -3.6602   20.7009  -18.8168 C   0  0  0  0  0  0  0  0  0  0  0  0
   -4.1816   21.4219  -17.6135 C   0  0  0  0  0  0  0  0  0  0  0  0
   -3.7796   22.7100  -17.3345 C   0  0  0  0  0  0  0  0  0  0  0  0
   -4.2607   23.3673  -16.2319 C   0  0  0  0  0  0  0  0  0  0  0  0
   -5.1551   22.7574  -15.3784 C   0  0  0  0  0  0  0  0  0  0  0  0
   -5.5684   21.4481  -15.6553 C   0  0  0  0  0  0  0  0  0  0  0  0
   -5.0737   20.8147  -16.7613 C   0  0  0  0  0  0  0  0  0  0  0  0
   -2.3118   21.2980  -19.1428 C   0  0  0  0  0  0  0  0  0  0  0  0
   -1.3173   20.5521  -18.4747 O   0  0  0  0  0  0  0  0  0  0  0  0
   -0.5569   20.3608  -19.1141 H   0  0  0  0  0  0  0  0  0  0  0  0
  7  8  1  0  0  0
  8  9  2  0  0  0
  9 10  1  0  0  0
 10 11  1  0  0  0
 11 12  2  0  0  0
 12 13  1  0  0  0
 13 14  2  0  0  0
 14 15  1  0  0  0
 15 16  2  0  0  0
 14  1  1  0  0  0
  1  2  2  0  0  0
  2  3  1  0  0  0
  3 27  1  0  0  0
 27 29  1  0  0  0
 29 36  1  0  0  0
 36 37  1  0  0  0
 29 30  1  0  0  0
 30 31  2  0  0  0
 31 32  1  0  0  0
 32 33  2  0  0  0
 33 34  1  0  0  0
 34 35  2  0  0  0
  3  4  2  0  0  0
  4  5  1  0  0  0
  5  6  2  0  0  0
  6 18  1  0  0  0
 18 19  2  0  0  0
 19 20  1  0  0  0
 20 21  1  0  0  0
 20 22  2  0  0  0
 22 23  1  0  0  0
 23 24  2  0  0  0
 24 25  1  0  0  0
 16  8  1  0  0  0
  6  1  1  0  0  0
 24 18  1  0  0  0
 16 11  1  0  0  0
 35 30  1  0  0  0
 10 17  1  0  0  0
 27 28  1  0  0  0
 37 38  1  0  0  0
 25 26  1  0  0  0
M  END
> <minimizedAffinity>
-8.22186

> <CNNscore>
0.3217642009

> <CNNaffinity>
6.7384757996

> <CNN_VS>
2.1682002544

> <CNNaffinity_variance>
0.1229894161

$$$$
[H]c1nc(N([H])[H])c2c(-c3sc4c(OC([H])([H])[H])c([H])c(C([H])([H])[H])c([H])c4c3[H])c(C([H])([H])N3C([H])([H])C(=O)N([H])C([H])([H])C3([H])[H])c([H])n2n1


 33 37  0  0  0  0  0  0  0  0999 V2000
   -2.2873   22.7226  -25.4887 C   0  0  0  0  0  0  0  0  0  0  0  0
   -3.6147   22.9260  -25.8948 C   0  0  0  0  0  0  0  0  0  0  0  0
   -3.6437   23.2075  -27.2279 C   0  0  0  0  0  0  0  0  0  0  0  0
   -2.3681   23.1869  -27.6582 N   0  0  0  0  0  0  0  0  0  0  0  0
   -1.9003   23.4247  -28.8709 N   0  0  0  0  0  0  0  0  0  0  0  0
   -0.5825   23.3904  -29.1064 C   0  0  0  0  0  0  0  0  0  0  0  0
    0.2640   23.1181  -28.1199 N   0  0  0  0  0  0  0  0  0  0  0  0
   -0.1783   22.8704  -26.8725 C   0  0  0  0  0  0  0  0  0  0  0  0
    0.7640   22.6658  -25.8494 N   0  0  0  0  0  0  0  0  0  0  0  0
   -1.5262   22.8935  -26.6017 C   0  0  0  0  0  0  0  0  0  0  0  0
    0.9619   23.3883  -25.1559 H   0  0  0  0  0  0  0  0  0  0  0  0
    1.2676   21.7575  -25.8022 H   0  0  0  0  0  0  0  0  0  0  0  0
   -0.4083   20.6581  -20.8284 C   0  0  0  0  0  0  0  0  0  0  0  0
   -0.2247   21.2941  -19.6095 C   0  0  0  0  0  0  0  0  0  0  0  0
   -0.5956   22.6243  -19.5688 C   0  0  0  0  0  0  0  0  0  0  0  0
   -0.3992   23.3109  -18.2614 C   0  0  0  0  0  0  0  0  0  0  0  0
   -1.1085   23.3021  -20.6247 C   0  0  0  0  0  0  0  0  0  0  0  0
   -1.2988   22.6632  -21.8687 C   0  0  0  0  0  0  0  0  0  0  0  0
   -1.7973   23.2197  -22.9934 C   0  0  0  0  0  0  0  0  0  0  0  0
   -1.9146   22.4468  -24.1114 C   0  0  0  0  0  0  0  0  0  0  0  0
   -1.2926   20.9214  -23.5120 S   0  0  0  0  0  0  0  0  0  0  0  0
   -0.9382   21.3573  -21.9197 C   0  0  0  0  0  0  0  0  0  0  0  0
    1.0559   18.6950  -20.6142 C   0  0  0  0  0  0  0  0  0  0  0  0
   -0.0955   19.3467  -21.0439 O   0  0  0  0  0  0  0  0  0  0  0  0
   -4.7684   22.8625  -24.9791 C   0  0  0  0  0  0  0  0  0  0  0  0
   -4.8560   24.0007  -24.0748 N   0  0  0  0  0  0  0  0  0  0  0  0
   -5.2978   25.2004  -24.6983 C   0  0  0  0  0  0  0  0  0  0  0  0
   -6.6723   25.6433  -24.2437 C   0  0  0  0  0  0  0  0  0  0  0  0
   -6.6015   25.8646  -22.8039 N   0  0  0  0  0  0  0  0  0  0  0  0
   -5.7832   24.9104  -22.0943 C   0  0  0  0  0  0  0  0  0  0  0  0
   -5.3752   25.1550  -20.9509 O   0  0  0  0  0  0  0  0  0  0  0  0
   -5.4915   23.6541  -22.8463 C   0  0  0  0  0  0  0  0  0  0  0  0
   -7.0894   26.6354  -22.3113 H   0  0  0  0  0  0  0  0  0  0  0  0
 23 24  1  0  0  0
 24 13  1  0  0  0
 13 14  2  0  0  0
 14 15  1  0  0  0
 15 16  1  0  0  0
 15 17  2  0  0  0
 17 18  1  0  0  0
 18 19  1  0  0  0
 19 20  2  0  0  0
 20 21  1  0  0  0
 21 22  1  0  0  0
 20  1  1  0  0  0
  1  2  1  0  0  0
  2 25  1  0  0  0
 25 26  1  0  0  0
 26 27  1  0  0  0
 27 28  1  0  0  0
 28 29  1  0  0  0
 29 30  1  0  0  0
 30 31  2  0  0  0
 30 32  1  0  0  0
  2  3  2  0  0  0
  3  4  1  0  0  0
  4  5  1  0  0  0
  5  6  2  0  0  0
  6  7  1  0  0  0
  7  8  2  0  0  0
  8  9  1  0  0  0
  8 10  1  0  0  0
 22 13  1  0  0  0
 10  1  2  0  0  0
 22 18  2  0  0  0
 32 26  1  0  0  0
 10  4  1  0  0  0
 29 33  1  0  0  0
  9 11  1  0  0  0
  9 12  1  0  0  0
M  END
> <minimizedAffinity>
-7.59507

> <CNNscore>
0.8653888702

> <CNNaffinity>
7.1310210228

> <CNN_VS>
6.1711063385

> <CNNaffinity_variance>
0.0241143666

$$$$
[H]c1nc(N([H])[H])c2c(-c3sc4c(OC([H])([H])[H])c([H])c(C([H])([H])[H])c([H])c4c3[H])c(C([H])([H])N3C([H])([H])C(=O)N([H])C([H])([H])C3([H])[H])c([H])n2n1


 33 37  0  0  0  0  0  0  0  0999 V2000
   -2.4076   22.7827  -25.3063 C   0  0  0  0  0  0  0  0  0  0  0  0
   -3.5748   23.0827  -26.0247 C   0  0  0  0  0  0  0  0  0  0  0  0
   -3.2779   23.1857  -27.3508 C   0  0  0  0  0  0  0  0  0  0  0  0
   -1.9562   22.9602  -27.4728 N   0  0  0  0  0  0  0  0  0  0  0  0
   -1.2111   22.9785  -28.5640 N   0  0  0  0  0  0  0  0  0  0  0  0
    0.1078   22.7607  -28.4863 C   0  0  0  0  0  0  0  0  0  0  0  0
    0.6764   22.5258  -27.3092 N   0  0  0  0  0  0  0  0  0  0  0  0
   -0.0528   22.4994  -26.1776 C   0  0  0  0  0  0  0  0  0  0  0  0
    0.6103   22.3251  -24.9502 N   0  0  0  0  0  0  0  0  0  0  0  0
   -1.4100   22.7145  -26.2268 C   0  0  0  0  0  0  0  0  0  0  0  0
    0.7565   23.1056  -24.3088 H   0  0  0  0  0  0  0  0  0  0  0  0
    0.9572   21.3789  -24.6947 H   0  0  0  0  0  0  0  0  0  0  0  0
   -3.2019   21.4540  -20.0992 C   0  0  0  0  0  0  0  0  0  0  0  0
   -2.3899   21.7117  -19.0046 C   0  0  0  0  0  0  0  0  0  0  0  0
   -1.2379   22.4261  -19.2714 C   0  0  0  0  0  0  0  0  0  0  0  0
   -0.3629   22.7042  -18.0982 C   0  0  0  0  0  0  0  0  0  0  0  0
   -0.8854   22.8655  -20.5043 C   0  0  0  0  0  0  0  0  0  0  0  0
   -1.7054   22.6080  -21.6237 C   0  0  0  0  0  0  0  0  0  0  0  0
   -1.4721   22.9867  -22.8987 C   0  0  0  0  0  0  0  0  0  0  0  0
   -2.3809   22.6514  -23.8593 C   0  0  0  0  0  0  0  0  0  0  0  0
   -3.5605   21.7848  -22.8947 S   0  0  0  0  0  0  0  0  0  0  0  0
   -2.8388   21.9076  -21.3732 C   0  0  0  0  0  0  0  0  0  0  0  0
   -5.3127   20.8543  -18.9907 C   0  0  0  0  0  0  0  0  0  0  0  0
   -4.3758   20.7620  -20.0149 O   0  0  0  0  0  0  0  0  0  0  0  0
   -4.8943   23.2759  -25.3964 C   0  0  0  0  0  0  0  0  0  0  0  0
   -5.1865   24.6657  -25.0736 N   0  0  0  0  0  0  0  0  0  0  0  0
   -4.9868   24.9943  -23.7042 C   0  0  0  0  0  0  0  0  0  0  0  0
   -3.8202   25.9315  -23.4748 C   0  0  0  0  0  0  0  0  0  0  0  0
   -4.0987   27.1580  -24.2131 N   0  0  0  0  0  0  0  0  0  0  0  0
   -4.7305   26.9514  -25.4944 C   0  0  0  0  0  0  0  0  0  0  0  0
   -5.3074   27.8827  -26.0718 O   0  0  0  0  0  0  0  0  0  0  0  0
   -4.6226   25.5616  -26.0289 C   0  0  0  0  0  0  0  0  0  0  0  0
   -3.8706   28.1080  -23.8659 H   0  0  0  0  0  0  0  0  0  0  0  0
 23 24  1  0  0  0
 24 13  1  0  0  0
 13 14  2  0  0  0
 14 15  1  0  0  0
 15 16  1  0  0  0
 15 17  2  0  0  0
 17 18  1  0  0  0
 18 19  1  0  0  0
 19 20  2  0  0  0
 20 21  1  0  0  0
 21 22  1  0  0  0
 20  1  1  0  0  0
  1  2  1  0  0  0
  2 25  1  0  0  0
 25 26  1  0  0  0
 26 27  1  0  0  0
 27 28  1  0  0  0
 28 29  1  0  0  0
 29 30  1  0  0  0
 30 31  2  0  0  0
 30 32  1  0  0  0
  2  3  2  0  0  0
  3  4  1  0  0  0
  4  5  1  0  0  0
  5  6  2  0  0  0
  6  7  1  0  0  0
  7  8  2  0  0  0
  8  9  1  0  0  0
  8 10  1  0  0  0
 22 13  1  0  0  0
 10  1  2  0  0  0
 22 18  2  0  0  0
 32 26  1  0  0  0
 10  4  1  0  0  0
 29 33  1  0  0  0
  9 11  1  0  0  0
  9 12  1  0  0  0
M  END
> <minimizedAffinity>
-8.14761

> <CNNscore>
0.8045622110

> <CNNaffinity>
7.2119050026

> <CNN_VS>
5.8024263382

> <CNNaffinity_variance>
0.1440751255

$$$$
[H]c1nc(N([H])[H])c2c(-c3sc4c(OC([H])([H])[H])c([H])c(C([H])([H])[H])c([H])c4c3[H])c(C([H])([H])N3C([H])([H])C(=O)N([H])C([H])([H])C3([H])[H])c([H])n2n1


 33 37  0  0  0  0  0  0  0  0999 V2000
   -2.6344   22.6747  -25.5090 C   0  0  0  0  0  0  0  0  0  0  0  0
   -3.7752   22.9702  -26.2705 C   0  0  0  0  0  0  0  0  0  0  0  0
   -3.4161   23.1605  -27.5713 C   0  0  0  0  0  0  0  0  0  0  0  0
   -2.0817   22.9936  -27.6354 N   0  0  0  0  0  0  0  0  0  0  0  0
   -1.2837   23.1033  -28.6830 N   0  0  0  0  0  0  0  0  0  0  0  0
    0.0375   22.9325  -28.5478 C   0  0  0  0  0  0  0  0  0  0  0  0
    0.5550   22.6525  -27.3572 N   0  0  0  0  0  0  0  0  0  0  0  0
   -0.2287   22.5330  -26.2689 C   0  0  0  0  0  0  0  0  0  0  0  0
    0.3780   22.3143  -25.0196 N   0  0  0  0  0  0  0  0  0  0  0  0
   -1.5895   22.6980  -26.3779 C   0  0  0  0  0  0  0  0  0  0  0  0
    0.4590   23.0617  -24.3292 H   0  0  0  0  0  0  0  0  0  0  0  0
    0.7505   21.3691  -24.7989 H   0  0  0  0  0  0  0  0  0  0  0  0
   -2.0404   22.8695  -20.1128 C   0  0  0  0  0  0  0  0  0  0  0  0
   -2.7962   22.2417  -19.1336 C   0  0  0  0  0  0  0  0  0  0  0  0
   -3.8204   21.4373  -19.5948 C   0  0  0  0  0  0  0  0  0  0  0  0
   -4.6347   20.7619  -18.5459 C   0  0  0  0  0  0  0  0  0  0  0  0
   -4.1034   21.2456  -20.9065 C   0  0  0  0  0  0  0  0  0  0  0  0
   -3.3398   21.8802  -21.9095 C   0  0  0  0  0  0  0  0  0  0  0  0
   -3.5150   21.7753  -23.2443 C   0  0  0  0  0  0  0  0  0  0  0  0
   -2.6756   22.4617  -24.0721 C   0  0  0  0  0  0  0  0  0  0  0  0
   -1.6455   23.2551  -22.8964 S   0  0  0  0  0  0  0  0  0  0  0  0
   -2.3319   22.6721  -21.4680 C   0  0  0  0  0  0  0  0  0  0  0  0
    0.0364   23.4470  -18.9308 C   0  0  0  0  0  0  0  0  0  0  0  0
   -0.9918   23.6981  -19.8336 O   0  0  0  0  0  0  0  0  0  0  0  0
   -5.1317   23.0759  -25.7030 C   0  0  0  0  0  0  0  0  0  0  0  0
   -5.6688   24.4294  -25.7290 N   0  0  0  0  0  0  0  0  0  0  0  0
   -6.9808   24.5400  -25.1909 C   0  0  0  0  0  0  0  0  0  0  0  0
   -7.0334   25.3093  -23.8881 C   0  0  0  0  0  0  0  0  0  0  0  0
   -6.5246   26.6495  -24.1560 N   0  0  0  0  0  0  0  0  0  0  0  0
   -5.4131   26.6916  -25.0760 C   0  0  0  0  0  0  0  0  0  0  0  0
   -5.0966   27.7497  -25.6363 O   0  0  0  0  0  0  0  0  0  0  0  0
   -4.7150   25.3870  -25.2747 C   0  0  0  0  0  0  0  0  0  0  0  0
   -6.9132   27.5124  -23.7325 H   0  0  0  0  0  0  0  0  0  0  0  0
 23 24  1  0  0  0
 24 13  1  0  0  0
 13 14  2  0  0  0
 14 15  1  0  0  0
 15 16  1  0  0  0
 15 17  2  0  0  0
 17 18  1  0  0  0
 18 19  1  0  0  0
 19 20  2  0  0  0
 20 21  1  0  0  0
 21 22  1  0  0  0
 20  1  1  0  0  0
  1  2  1  0  0  0
  2 25  1  0  0  0
 25 26  1  0  0  0
 26 27  1  0  0  0
 27 28  1  0  0  0
 28 29  1  0  0  0
 29 30  1  0  0  0
 30 31  2  0  0  0
 30 32  1  0  0  0
  2  3  2  0  0  0
  3  4  1  0  0  0
  4  5  1  0  0  0
  5  6  2  0  0  0
  6  7  1  0  0  0
  7  8  2  0  0  0
  8  9  1  0  0  0
  8 10  1  0  0  0
 22 13  1  0  0  0
 10  1  2  0  0  0
 22 18  2  0  0  0
 32 26  1  0  0  0
 10  4  1  0  0  0
 29 33  1  0  0  0
  9 11  1  0  0  0
  9 12  1  0  0  0
M  END
> <minimizedAffinity>
-8.55364

> <CNNscore>
0.7925196886

> <CNNaffinity>
7.1699614525

> <CNN_VS>
5.6823358536

> <CNNaffinity_variance>
0.0645647943

$$$$
[H]c1nc(N([H])[H])c2c(-c3sc4c(OC([H])([H])[H])c([H])c(C([H])([H])[H])c([H])c4c3[H])c(C([H])([H])N3C([H])([H])C(=O)N([H])C([H])([H])C3([H])[H])c([H])n2n1


 33 37  0  0  0  0  0  0  0  0999 V2000
   -2.1629   22.4525  -25.4094 C   0  0  0  0  0  0  0  0  0  0  0  0
   -3.4723   22.5877  -25.8950 C   0  0  0  0  0  0  0  0  0  0  0  0
   -3.4349   22.9028  -27.2203 C   0  0  0  0  0  0  0  0  0  0  0  0
   -2.1360   22.9694  -27.5684 N   0  0  0  0  0  0  0  0  0  0  0  0
   -1.6085   23.2669  -28.7429 N   0  0  0  0  0  0  0  0  0  0  0  0
   -0.2789   23.3171  -28.8942 C   0  0  0  0  0  0  0  0  0  0  0  0
    0.5192   23.0690  -27.8621 N   0  0  0  0  0  0  0  0  0  0  0  0
    0.0156   22.7621  -26.6516 C   0  0  0  0  0  0  0  0  0  0  0  0
    0.9028   22.5864  -25.5752 N   0  0  0  0  0  0  0  0  0  0  0  0
   -1.3455   22.6980  -26.4672 C   0  0  0  0  0  0  0  0  0  0  0  0
    1.0126   23.3004  -24.8540 H   0  0  0  0  0  0  0  0  0  0  0  0
    1.4567   21.7085  -25.5168 H   0  0  0  0  0  0  0  0  0  0  0  0
   -2.0802   22.0035  -19.9963 C   0  0  0  0  0  0  0  0  0  0  0  0
   -1.3347   21.1385  -19.2089 C   0  0  0  0  0  0  0  0  0  0  0  0
   -0.4782   20.2974  -19.8928 C   0  0  0  0  0  0  0  0  0  0  0  0
    0.3237   19.3665  -19.0504 C   0  0  0  0  0  0  0  0  0  0  0  0
   -0.3434   20.2843  -21.2415 C   0  0  0  0  0  0  0  0  0  0  0  0
   -1.0978   21.1608  -22.0506 C   0  0  0  0  0  0  0  0  0  0  0  0
   -1.0594   21.2494  -23.3974 C   0  0  0  0  0  0  0  0  0  0  0  0
   -1.8610   22.1624  -24.0179 C   0  0  0  0  0  0  0  0  0  0  0  0
   -2.6639   22.8762  -22.6327 S   0  0  0  0  0  0  0  0  0  0  0  0
   -1.9416   21.9908  -21.3896 C   0  0  0  0  0  0  0  0  0  0  0  0
   -3.8164   22.6924  -18.3980 C   0  0  0  0  0  0  0  0  0  0  0  0
   -2.9737   22.9004  -19.4851 O   0  0  0  0  0  0  0  0  0  0  0  0
   -4.6749   22.4314  -25.0568 C   0  0  0  0  0  0  0  0  0  0  0  0
   -5.3494   23.6895  -24.7677 N   0  0  0  0  0  0  0  0  0  0  0  0
   -5.8682   24.3438  -25.9192 C   0  0  0  0  0  0  0  0  0  0  0  0
   -7.3812   24.3669  -25.9671 C   0  0  0  0  0  0  0  0  0  0  0  0
   -7.8410   25.0778  -24.7796 N   0  0  0  0  0  0  0  0  0  0  0  0
   -7.0735   24.8053  -23.5879 C   0  0  0  0  0  0  0  0  0  0  0  0
   -7.1375   25.5608  -22.6088 O   0  0  0  0  0  0  0  0  0  0  0  0
   -6.2314   23.5742  -23.6533 C   0  0  0  0  0  0  0  0  0  0  0  0
   -8.6484   25.7282  -24.7698 H   0  0  0  0  0  0  0  0  0  0  0  0
 23 24  1  0  0  0
 24 13  1  0  0  0
 13 14  2  0  0  0
 14 15  1  0  0  0
 15 16  1  0  0  0
 15 17  2  0  0  0
 17 18  1  0  0  0
 18 19  1  0  0  0
 19 20  2  0  0  0
 20 21  1  0  0  0
 21 22  1  0  0  0
 20  1  1  0  0  0
  1  2  1  0  0  0
  2 25  1  0  0  0
 25 26  1  0  0  0
 26 27  1  0  0  0
 27 28  1  0  0  0
 28 29  1  0  0  0
 29 30  1  0  0  0
 30 31  2  0  0  0
 30 32  1  0  0  0
  2  3  2  0  0  0
  3  4  1  0  0  0
  4  5  1  0  0  0
  5  6  2  0  0  0
  6  7  1  0  0  0
  7  8  2  0  0  0
  8  9  1  0  0  0
  8 10  1  0  0  0
 22 13  1  0  0  0
 10  1  2  0  0  0
 22 18  2  0  0  0
 32 26  1  0  0  0
 10  4  1  0  0  0
 29 33  1  0  0  0
  9 11  1  0  0  0
  9 12  1  0  0  0
M  END
> <minimizedAffinity>
-8.53294

> <CNNscore>
0.7004842758

> <CNNaffinity>
7.0770101547

> <CNN_VS>
4.9573345184

> <CNNaffinity_variance>
0.0309361313

$$$$
[H]c1nc(N([H])[H])c2c(-c3sc4c(OC([H])([H])[H])c([H])c(C([H])([H])[H])c([H])c4c3[H])c(C([H])([H])N3C([H])([H])C(=O)N([H])C([H])([H])C3([H])[H])c([H])n2n1


 33 37  0  0  0  0  0  0  0  0999 V2000
   -3.6613   23.0004  -25.7282 C   0  0  0  0  0  0  0  0  0  0  0  0
   -3.8089   23.0634  -27.1221 C   0  0  0  0  0  0  0  0  0  0  0  0
   -2.6150   22.7864  -27.7181 C   0  0  0  0  0  0  0  0  0  0  0  0
   -1.7303   22.5562  -26.7297 N   0  0  0  0  0  0  0  0  0  0  0  0
   -0.4429   22.2725  -26.8212 N   0  0  0  0  0  0  0  0  0  0  0  0
    0.2936   22.1069  -25.7153 C   0  0  0  0  0  0  0  0  0  0  0  0
   -0.2663   22.2284  -24.5171 N   0  0  0  0  0  0  0  0  0  0  0  0
   -1.5753   22.5161  -24.3871 C   0  0  0  0  0  0  0  0  0  0  0  0
   -2.0996   22.7116  -23.0974 N   0  0  0  0  0  0  0  0  0  0  0  0
   -2.3579   22.6867  -25.5048 C   0  0  0  0  0  0  0  0  0  0  0  0
   -2.3168   23.6454  -22.7471 H   0  0  0  0  0  0  0  0  0  0  0  0
   -2.2680   21.8840  -22.4911 H   0  0  0  0  0  0  0  0  0  0  0  0
   -7.5527   22.8974  -21.9392 C   0  0  0  0  0  0  0  0  0  0  0  0
   -8.2005   23.9630  -21.3319 C   0  0  0  0  0  0  0  0  0  0  0  0
   -7.8243   25.2181  -21.7700 C   0  0  0  0  0  0  0  0  0  0  0  0
   -8.5176   26.3650  -21.1196 C   0  0  0  0  0  0  0  0  0  0  0  0
   -6.8896   25.4397  -22.7263 C   0  0  0  0  0  0  0  0  0  0  0  0
   -6.2253   24.3617  -23.3496 C   0  0  0  0  0  0  0  0  0  0  0  0
   -5.2799   24.4436  -24.3102 C   0  0  0  0  0  0  0  0  0  0  0  0
   -4.7446   23.2900  -24.8040 C   0  0  0  0  0  0  0  0  0  0  0  0
   -5.6210   22.1013  -23.8596 S   0  0  0  0  0  0  0  0  0  0  0  0
   -6.5870   23.1253  -22.9272 C   0  0  0  0  0  0  0  0  0  0  0  0
   -8.1828   21.1033  -20.3810 C   0  0  0  0  0  0  0  0  0  0  0  0
   -7.8026   21.5921  -21.6267 O   0  0  0  0  0  0  0  0  0  0  0  0
   -5.0744   23.4079  -27.7952 C   0  0  0  0  0  0  0  0  0  0  0  0
   -4.8942   24.2162  -28.9932 N   0  0  0  0  0  0  0  0  0  0  0  0
   -4.8516   23.4609  -30.1978 C   0  0  0  0  0  0  0  0  0  0  0  0
   -6.0529   23.6858  -31.0912 C   0  0  0  0  0  0  0  0  0  0  0  0
   -6.0806   25.1039  -31.4305 N   0  0  0  0  0  0  0  0  0  0  0  0
   -5.7004   25.9822  -30.3500 C   0  0  0  0  0  0  0  0  0  0  0  0
   -5.3697   27.1541  -30.5751 O   0  0  0  0  0  0  0  0  0  0  0  0
   -5.7442   25.3610  -28.9931 C   0  0  0  0  0  0  0  0  0  0  0  0
   -6.3477   25.4718  -32.3623 H   0  0  0  0  0  0  0  0  0  0  0  0
 23 24  1  0  0  0
 24 13  1  0  0  0
 13 14  2  0  0  0
 14 15  1  0  0  0
 15 16  1  0  0  0
 15 17  2  0  0  0
 17 18  1  0  0  0
 18 19  1  0  0  0
 19 20  2  0  0  0
 20 21  1  0  0  0
 21 22  1  0  0  0
 20  1  1  0  0  0
  1  2  1  0  0  0
  2 25  1  0  0  0
 25 26  1  0  0  0
 26 27  1  0  0  0
 27 28  1  0  0  0
 28 29  1  0  0  0
 29 30  1  0  0  0
 30 31  2  0  0  0
 30 32  1  0  0  0
  2  3  2  0  0  0
  3  4  1  0  0  0
  4  5  1  0  0  0
  5  6  2  0  0  0
  6  7  1  0  0  0
  7  8  2  0  0  0
  8  9  1  0  0  0
  8 10  1  0  0  0
 22 13  1  0  0  0
 10  1  2  0  0  0
 22 18  2  0  0  0
 32 26  1  0  0  0
 10  4  1  0  0  0
 29 33  1  0  0  0
  9 11  1  0  0  0
  9 12  1  0  0  0
M  END
> <minimizedAffinity>
-8.87531

> <CNNscore>
0.3731904328

> <CNNaffinity>
7.3767023087

> <CNN_VS>
2.7529146671

> <CNNaffinity_variance>
0.2010340393

$$$$
[H]c1nc(N([H])[H])c2c(-c3sc4c(OC([H])([H])[H])c([H])c(C([H])([H])[H])c([H])c4c3[H])c(C([H])([H])N3C([H])([H])C(=O)N([H])C([H])([H])C3([H])[H])c([H])n2n1


 33 37  0  0  0  0  0  0  0  0999 V2000
   -1.7370   22.0582  -23.5807 C   0  0  0  0  0  0  0  0  0  0  0  0
   -2.2607   21.5696  -22.3743 C   0  0  0  0  0  0  0  0  0  0  0  0
   -1.2557   21.0298  -21.6286 C   0  0  0  0  0  0  0  0  0  0  0  0
   -0.1230   21.1685  -22.3430 N   0  0  0  0  0  0  0  0  0  0  0  0
    1.1008   20.7741  -22.0380 N   0  0  0  0  0  0  0  0  0  0  0  0
    2.1089   20.9712  -22.8971 C   0  0  0  0  0  0  0  0  0  0  0  0
    1.8839   21.5642  -24.0640 N   0  0  0  0  0  0  0  0  0  0  0  0
    0.6497   21.9791  -24.4067 C   0  0  0  0  0  0  0  0  0  0  0  0
    0.4522   22.5290  -25.6854 N   0  0  0  0  0  0  0  0  0  0  0  0
   -0.4041   21.7950  -23.5428 C   0  0  0  0  0  0  0  0  0  0  0  0
   -0.0050   21.9984  -26.4281 H   0  0  0  0  0  0  0  0  0  0  0  0
    0.7804   23.4973  -25.8738 H   0  0  0  0  0  0  0  0  0  0  0  0
   -4.5600   25.3484  -26.8543 C   0  0  0  0  0  0  0  0  0  0  0  0
   -5.0586   25.0908  -28.1228 C   0  0  0  0  0  0  0  0  0  0  0  0
   -4.8295   23.8171  -28.6066 C   0  0  0  0  0  0  0  0  0  0  0  0
   -5.3629   23.5371  -29.9691 C   0  0  0  0  0  0  0  0  0  0  0  0
   -4.1670   22.8528  -27.9221 C   0  0  0  0  0  0  0  0  0  0  0  0
   -3.6563   23.1059  -26.6310 C   0  0  0  0  0  0  0  0  0  0  0  0
   -2.9816   22.2386  -25.8462 C   0  0  0  0  0  0  0  0  0  0  0  0
   -2.5621   22.6560  -24.6169 C   0  0  0  0  0  0  0  0  0  0  0  0
   -3.1509   24.3071  -24.6220 S   0  0  0  0  0  0  0  0  0  0  0  0
   -3.8756   24.3528  -26.1464 C   0  0  0  0  0  0  0  0  0  0  0  0
   -5.6858   26.8931  -25.3084 C   0  0  0  0  0  0  0  0  0  0  0  0
   -4.6970   26.5526  -26.2257 O   0  0  0  0  0  0  0  0  0  0  0  0
   -3.6908   21.6274  -22.0212 C   0  0  0  0  0  0  0  0  0  0  0  0
   -3.9954   22.6087  -20.9890 N   0  0  0  0  0  0  0  0  0  0  0  0
   -4.9749   23.5657  -21.3738 C   0  0  0  0  0  0  0  0  0  0  0  0
   -6.2812   23.4247  -20.6219 C   0  0  0  0  0  0  0  0  0  0  0  0
   -5.9864   23.6028  -19.2047 N   0  0  0  0  0  0  0  0  0  0  0  0
   -4.7394   23.0146  -18.7774 C   0  0  0  0  0  0  0  0  0  0  0  0
   -4.2132   23.3557  -17.7096 O   0  0  0  0  0  0  0  0  0  0  0  0
   -4.1736   21.9979  -19.7129 C   0  0  0  0  0  0  0  0  0  0  0  0
   -6.6057   24.1058  -18.5426 H   0  0  0  0  0  0  0  0  0  0  0  0
 23 24  1  0  0  0
 24 13  1  0  0  0
 13 14  2  0  0  0
 14 15  1  0  0  0
 15 16  1  0  0  0
 15 17  2  0  0  0
 17 18  1  0  0  0
 18 19  1  0  0  0
 19 20  2  0  0  0
 20 21  1  0  0  0
 21 22  1  0  0  0
 20  1  1  0  0  0
  1  2  1  0  0  0
  2 25  1  0  0  0
 25 26  1  0  0  0
 26 27  1  0  0  0
 27 28  1  0  0  0
 28 29  1  0  0  0
 29 30  1  0  0  0
 30 31  2  0  0  0
 30 32  1  0  0  0
  2  3  2  0  0  0
  3  4  1  0  0  0
  4  5  1  0  0  0
  5  6  2  0  0  0
  6  7  1  0  0  0
  7  8  2  0  0  0
  8  9  1  0  0  0
  8 10  1  0  0  0
 22 13  1  0  0  0
 10  1  2  0  0  0
 22 18  2  0  0  0
 32 26  1  0  0  0
 10  4  1  0  0  0
 29 33  1  0  0  0
  9 11  1  0  0  0
  9 12  1  0  0  0
M  END
> <minimizedAffinity>
-8.18033

> <CNNscore>
0.2756919563

> <CNNaffinity>
6.7400064468

> <CNN_VS>
1.8581656218

> <CNNaffinity_variance>
0.1691025645

$$$$
[H]c1nc(N([H])[H])c2c(-c3sc4c(OC([H])([H])[H])c([H])c(C([H])([H])[H])c([H])c4c3[H])c(C([H])([H])N3C([H])([H])C(=O)N([H])C([H])([H])C3([H])[H])c([H])n2n1


 33 37  0  0  0  0  0  0  0  0999 V2000
   -4.7849   23.1448  -25.2834 C   0  0  0  0  0  0  0  0  0  0  0  0
   -6.1580   23.2665  -25.0223 C   0  0  0  0  0  0  0  0  0  0  0  0
   -6.8164   23.5569  -26.1797 C   0  0  0  0  0  0  0  0  0  0  0  0
   -5.8864   23.6213  -27.1511 N   0  0  0  0  0  0  0  0  0  0  0  0
   -6.0472   23.8987  -28.4331 N   0  0  0  0  0  0  0  0  0  0  0  0
   -4.9890   23.9506  -29.2519 C   0  0  0  0  0  0  0  0  0  0  0  0
   -3.7687   23.7244  -28.7791 N   0  0  0  0  0  0  0  0  0  0  0  0
   -3.5686   23.4385  -27.4787 C   0  0  0  0  0  0  0  0  0  0  0  0
   -2.2501   23.2858  -27.0152 N   0  0  0  0  0  0  0  0  0  0  0  0
   -4.6366   23.3732  -26.6150 C   0  0  0  0  0  0  0  0  0  0  0  0
   -1.7917   24.0136  -26.4654 H   0  0  0  0  0  0  0  0  0  0  0  0
   -1.7351   22.4111  -27.2397 H   0  0  0  0  0  0  0  0  0  0  0  0
   -0.4263   21.7526  -22.3551 C   0  0  0  0  0  0  0  0  0  0  0  0
   -0.1041   22.1117  -21.0546 C   0  0  0  0  0  0  0  0  0  0  0  0
   -1.0301   22.9082  -20.4088 C   0  0  0  0  0  0  0  0  0  0  0  0
   -0.6871   23.2964  -19.0121 C   0  0  0  0  0  0  0  0  0  0  0  0
   -2.1884   23.3334  -20.9699 C   0  0  0  0  0  0  0  0  0  0  0  0
   -2.5245   22.9729  -22.2924 C   0  0  0  0  0  0  0  0  0  0  0  0
   -3.6398   23.3268  -22.9663 C   0  0  0  0  0  0  0  0  0  0  0  0
   -3.8024   22.8816  -24.2456 C   0  0  0  0  0  0  0  0  0  0  0  0
   -2.3268   21.9581  -24.4524 S   0  0  0  0  0  0  0  0  0  0  0  0
   -1.6227   22.1912  -22.9355 C   0  0  0  0  0  0  0  0  0  0  0  0
    1.4245   21.4102  -23.9364 C   0  0  0  0  0  0  0  0  0  0  0  0
    0.3746   20.9706  -23.1367 O   0  0  0  0  0  0  0  0  0  0  0  0
   -6.7506   23.1218  -23.6802 C   0  0  0  0  0  0  0  0  0  0  0  0
   -6.7002   24.3427  -22.8878 N   0  0  0  0  0  0  0  0  0  0  0  0
   -7.5936   25.3563  -23.3324 C   0  0  0  0  0  0  0  0  0  0  0  0
   -8.7277   25.6243  -22.3659 C   0  0  0  0  0  0  0  0  0  0  0  0
   -8.1306   26.0489  -21.1049 N   0  0  0  0  0  0  0  0  0  0  0  0
   -6.9177   25.3489  -20.7548 C   0  0  0  0  0  0  0  0  0  0  0  0
   -6.1442   25.8114  -19.9056 O   0  0  0  0  0  0  0  0  0  0  0  0
   -6.7004   24.0672  -21.4888 C   0  0  0  0  0  0  0  0  0  0  0  0
   -8.5269   26.7886  -20.4960 H   0  0  0  0  0  0  0  0  0  0  0  0
 23 24  1  0  0  0
 24 13  1  0  0  0
 13 14  2  0  0  0
 14 15  1  0  0  0
 15 16  1  0  0  0
 15 17  2  0  0  0
 17 18  1  0  0  0
 18 19  1  0  0  0
 19 20  2  0  0  0
 20 21  1  0  0  0
 21 22  1  0  0  0
 20  1  1  0  0  0
  1  2  1  0  0  0
  2 25  1  0  0  0
 25 26  1  0  0  0
 26 27  1  0  0  0
 27 28  1  0  0  0
 28 29  1  0  0  0
 29 30  1  0  0  0
 30 31  2  0  0  0
 30 32  1  0  0  0
  2  3  2  0  0  0
  3  4  1  0  0  0
  4  5  1  0  0  0
  5  6  2  0  0  0
  6  7  1  0  0  0
  7  8  2  0  0  0
  8  9  1  0  0  0
  8 10  1  0  0  0
 22 13  1  0  0  0
 10  1  2  0  0  0
 22 18  2  0  0  0
 32 26  1  0  0  0
 10  4  1  0  0  0
 29 33  1  0  0  0
  9 11  1  0  0  0
  9 12  1  0  0  0
M  END
> <minimizedAffinity>
-7.90396

> <CNNscore>
0.2093774676

> <CNNaffinity>
6.6683797836

> <CNN_VS>
1.3962085247

> <CNNaffinity_variance>
0.1046715006

$$$$
[H]c1nc(N([H])[H])c2c(-c3sc4c(OC([H])([H])[H])c([H])c(C([H])([H])[H])c([H])c4c3[H])c(C([H])([H])N3C([H])([H])C(=O)N([H])C([H])([H])C3([H])[H])c([H])n2n1


 33 37  0  0  0  0  0  0  0  0999 V2000
   -1.8642   22.2277  -23.8698 C   0  0  0  0  0  0  0  0  0  0  0  0
   -0.8281   21.6439  -23.1255 C   0  0  0  0  0  0  0  0  0  0  0  0
    0.2544   21.4480  -23.9300 C   0  0  0  0  0  0  0  0  0  0  0  0
   -0.0850   21.8926  -25.1547 N   0  0  0  0  0  0  0  0  0  0  0  0
    0.6317   21.8865  -26.2649 N   0  0  0  0  0  0  0  0  0  0  0  0
    0.1098   22.3454  -27.4095 C   0  0  0  0  0  0  0  0  0  0  0  0
   -1.1344   22.8092  -27.4360 N   0  0  0  0  0  0  0  0  0  0  0  0
   -1.8925   22.8307  -26.3234 C   0  0  0  0  0  0  0  0  0  0  0  0
   -3.2281   23.2580  -26.4237 N   0  0  0  0  0  0  0  0  0  0  0  0
   -1.3819   22.3707  -25.1324 C   0  0  0  0  0  0  0  0  0  0  0  0
   -4.0026   22.5934  -26.4006 H   0  0  0  0  0  0  0  0  0  0  0  0
   -3.4262   24.2737  -26.5233 H   0  0  0  0  0  0  0  0  0  0  0  0
   -6.6519   24.3673  -22.4519 C   0  0  0  0  0  0  0  0  0  0  0  0
   -7.7341   23.7464  -21.8456 C   0  0  0  0  0  0  0  0  0  0  0  0
   -7.5596   22.4113  -21.5364 C   0  0  0  0  0  0  0  0  0  0  0  0
   -8.7201   21.7410  -20.8857 C   0  0  0  0  0  0  0  0  0  0  0  0
   -6.4246   21.7152  -21.7903 C   0  0  0  0  0  0  0  0  0  0  0  0
   -5.3186   22.3386  -22.4068 C   0  0  0  0  0  0  0  0  0  0  0  0
   -4.1362   21.7632  -22.7140 C   0  0  0  0  0  0  0  0  0  0  0  0
   -3.1720   22.5230  -23.3092 C   0  0  0  0  0  0  0  0  0  0  0  0
   -4.0012   24.0635  -23.4186 S   0  0  0  0  0  0  0  0  0  0  0  0
   -5.4789   23.6491  -22.7145 C   0  0  0  0  0  0  0  0  0  0  0  0
   -6.8041   26.1688  -24.1177 C   0  0  0  0  0  0  0  0  0  0  0  0
   -6.6534   25.6810  -22.8237 O   0  0  0  0  0  0  0  0  0  0  0  0
   -0.9461   21.2880  -21.6998 C   0  0  0  0  0  0  0  0  0  0  0  0
   -0.1370   22.1237  -20.8232 N   0  0  0  0  0  0  0  0  0  0  0  0
   -0.8962   23.0000  -19.9993 C   0  0  0  0  0  0  0  0  0  0  0  0
   -0.8396   22.6427  -18.5292 C   0  0  0  0  0  0  0  0  0  0  0  0
    0.5586   22.7122  -18.1204 N   0  0  0  0  0  0  0  0  0  0  0  0
    1.4926   22.2259  -19.1076 C   0  0  0  0  0  0  0  0  0  0  0  0
    2.6943   22.5164  -19.0374 O   0  0  0  0  0  0  0  0  0  0  0  0
    0.8887   21.3746  -20.1751 C   0  0  0  0  0  0  0  0  0  0  0  0
    0.8769   23.0764  -17.2033 H   0  0  0  0  0  0  0  0  0  0  0  0
 23 24  1  0  0  0
 24 13  1  0  0  0
 13 14  2  0  0  0
 14 15  1  0  0  0
 15 16  1  0  0  0
 15 17  2  0  0  0
 17 18  1  0  0  0
 18 19  1  0  0  0
 19 20  2  0  0  0
 20 21  1  0  0  0
 21 22  1  0  0  0
 20  1  1  0  0  0
  1  2  1  0  0  0
  2 25  1  0  0  0
 25 26  1  0  0  0
 26 27  1  0  0  0
 27 28  1  0  0  0
 28 29  1  0  0  0
 29 30  1  0  0  0
 30 31  2  0  0  0
 30 32  1  0  0  0
  2  3  2  0  0  0
  3  4  1  0  0  0
  4  5  1  0  0  0
  5  6  2  0  0  0
  6  7  1  0  0  0
  7  8  2  0  0  0
  8  9  1  0  0  0
  8 10  1  0  0  0
 22 13  1  0  0  0
 10  1  2  0  0  0
 22 18  2  0  0  0
 32 26  1  0  0  0
 10  4  1  0  0  0
 29 33  1  0  0  0
  9 11  1  0  0  0
  9 12  1  0  0  0
M  END
> <minimizedAffinity>
-7.90619

> <CNNscore>
0.2025319934

> <CNNaffinity>
6.4559960365

> <CNN_VS>
1.3075457811

> <CNNaffinity_variance>
0.2476354539

$$$$
[H]c1nc(N([H])[H])c2c(-c3sc4c(OC([H])([H])[H])c([H])c(C([H])([H])[H])c([H])c4c3[H])c(C([H])([H])N3C([H])([H])C(=O)N([H])C([H])([H])C3([H])[H])c([H])n2n1


 33 37  0  0  0  0  0  0  0  0999 V2000
   -3.5655   22.8007  -24.7231 C   0  0  0  0  0  0  0  0  0  0  0  0
   -2.4733   22.1060  -24.1817 C   0  0  0  0  0  0  0  0  0  0  0  0
   -1.5333   21.9128  -25.1493 C   0  0  0  0  0  0  0  0  0  0  0  0
   -2.0158   22.4670  -26.2774 N   0  0  0  0  0  0  0  0  0  0  0  0
   -1.4686   22.5060  -27.4796 N   0  0  0  0  0  0  0  0  0  0  0  0
   -2.1189   23.0785  -28.5006 C   0  0  0  0  0  0  0  0  0  0  0  0
   -3.3209   23.6106  -28.3110 N   0  0  0  0  0  0  0  0  0  0  0  0
   -3.9076   23.5890  -27.0992 C   0  0  0  0  0  0  0  0  0  0  0  0
   -5.2129   24.0954  -26.9711 N   0  0  0  0  0  0  0  0  0  0  0  0
   -3.2619   23.0126  -26.0308 C   0  0  0  0  0  0  0  0  0  0  0  0
   -6.0178   23.4745  -26.8779 H   0  0  0  0  0  0  0  0  0  0  0  0
   -5.3563   25.1250  -26.9718 H   0  0  0  0  0  0  0  0  0  0  0  0
   -7.9186   22.8313  -21.4734 C   0  0  0  0  0  0  0  0  0  0  0  0
   -8.6275   23.9181  -20.9832 C   0  0  0  0  0  0  0  0  0  0  0  0
   -8.1826   25.1579  -21.4000 C   0  0  0  0  0  0  0  0  0  0  0  0
   -8.9412   26.3275  -20.8750 C   0  0  0  0  0  0  0  0  0  0  0  0
   -7.1286   25.3461  -22.2314 C   0  0  0  0  0  0  0  0  0  0  0  0
   -6.4015   24.2463  -22.7350 C   0  0  0  0  0  0  0  0  0  0  0  0
   -5.3380   24.2947  -23.5656 C   0  0  0  0  0  0  0  0  0  0  0  0
   -4.7566   23.1239  -23.9559 C   0  0  0  0  0  0  0  0  0  0  0  0
   -5.7626   21.9682  -23.1043 S   0  0  0  0  0  0  0  0  0  0  0  0
   -6.8298   23.0248  -22.3323 C   0  0  0  0  0  0  0  0  0  0  0  0
   -8.2825   20.9902  -19.8856 C   0  0  0  0  0  0  0  0  0  0  0  0
   -8.2224   21.5369  -21.1633 O   0  0  0  0  0  0  0  0  0  0  0  0
   -2.4077   21.6499  -22.7814 C   0  0  0  0  0  0  0  0  0  0  0  0
   -1.1617   22.0006  -22.1137 N   0  0  0  0  0  0  0  0  0  0  0  0
   -1.3053   23.0000  -21.1119 C   0  0  0  0  0  0  0  0  0  0  0  0
   -1.0803   22.4806  -19.7078 C   0  0  0  0  0  0  0  0  0  0  0  0
    0.2797   21.9570  -19.6528 N   0  0  0  0  0  0  0  0  0  0  0  0
    0.7006   21.2659  -20.8481 C   0  0  0  0  0  0  0  0  0  0  0  0
    1.9015   21.0596  -21.0689 O   0  0  0  0  0  0  0  0  0  0  0  0
   -0.4106   20.8439  -21.7515 C   0  0  0  0  0  0  0  0  0  0  0  0
    0.9082   22.0609  -18.8347 H   0  0  0  0  0  0  0  0  0  0  0  0
 23 24  1  0  0  0
 24 13  1  0  0  0
 13 14  2  0  0  0
 14 15  1  0  0  0
 15 16  1  0  0  0
 15 17  2  0  0  0
 17 18  1  0  0  0
 18 19  1  0  0  0
 19 20  2  0  0  0
 20 21  1  0  0  0
 21 22  1  0  0  0
 20  1  1  0  0  0
  1  2  1  0  0  0
  2 25  1  0  0  0
 25 26  1  0  0  0
 26 27  1  0  0  0
 27 28  1  0  0  0
 28 29  1  0  0  0
 29 30  1  0  0  0
 30 31  2  0  0  0
 30 32  1  0  0  0
  2  3  2  0  0  0
  3  4  1  0  0  0
  4  5  1  0  0  0
  5  6  2  0  0  0
  6  7  1  0  0  0
  7  8  2  0  0  0
  8  9  1  0  0  0
  8 10  1  0  0  0
 22 13  1  0  0  0
 10  1  2  0  0  0
 22 18  2  0  0  0
 32 26  1  0  0  0
 10  4  1  0  0  0
 29 33  1  0  0  0
  9 11  1  0  0  0
  9 12  1  0  0  0
M  END
> <minimizedAffinity>
-7.67078

> <CNNscore>
0.1947146654

> <CNNaffinity>
6.4272108078

> <CNN_VS>
1.2514722347

> <CNNaffinity_variance>
0.2624963522

$$$$
[H]c1nc(N([H])[H])c2c(-c3sc4c(OC([H])([H])[H])c([H])c(C([H])([H])[H])c([H])c4c3[H])c(C([H])([H])OC([H])([H])C([H])([H])[H])c(C(=O)N3C([H])([H])C([H])([H])OC([H])([H])C3([H])[H])n2n1


 36 40  0  0  0  0  0  0  0  0999 V2000
   -3.2126   23.4205  -25.0580 C   0  0  0  0  0  0  0  0  0  0  0  0
   -1.9985   23.0117  -24.7918 C   0  0  0  0  0  0  0  0  0  0  0  0
   -1.2447   22.8331  -26.0166 C   0  0  0  0  0  0  0  0  0  0  0  0
    0.1164   22.5490  -26.1902 C   0  0  0  0  0  0  0  0  0  0  0  0
    0.9334   22.3071  -25.0893 N   0  0  0  0  0  0  0  0  0  0  0  0
    0.5568   22.6194  -27.4499 N   0  0  0  0  0  0  0  0  0  0  0  0
   -0.2535   22.9452  -28.4317 C   0  0  0  0  0  0  0  0  0  0  0  0
   -1.5950   23.2162  -28.2469 N   0  0  0  0  0  0  0  0  0  0  0  0
   -2.0989   23.1378  -27.0093 N   0  0  0  0  0  0  0  0  0  0  0  0
   -3.2874   23.4571  -26.5075 C   0  0  0  0  0  0  0  0  0  0  0  0
    1.4366   21.4115  -24.9129 H   0  0  0  0  0  0  0  0  0  0  0  0
    1.1315   23.0407  -24.3725 H   0  0  0  0  0  0  0  0  0  0  0  0
   -1.4869   22.3316  -23.5542 C   0  0  0  0  0  0  0  0  0  0  0  0
   -1.8723   22.9362  -22.3048 C   0  0  0  0  0  0  0  0  0  0  0  0
   -1.5004   22.3970  -21.1896 C   0  0  0  0  0  0  0  0  0  0  0  0
   -1.8602   22.7848  -19.8489 C   0  0  0  0  0  0  0  0  0  0  0  0
   -1.4755   22.0398  -18.7684 C   0  0  0  0  0  0  0  0  0  0  0  0
   -2.0307   22.5311  -17.4249 C   0  0  0  0  0  0  0  0  0  0  0  0
   -0.7463   20.9027  -18.8190 C   0  0  0  0  0  0  0  0  0  0  0  0
   -0.3801   20.5140  -20.1494 C   0  0  0  0  0  0  0  0  0  0  0  0
   -0.7559   21.2447  -21.2742 C   0  0  0  0  0  0  0  0  0  0  0  0
   -0.6429   21.0483  -22.9858 S   0  0  0  0  0  0  0  0  0  0  0  0
    0.3685   19.4010  -20.3788 O   0  0  0  0  0  0  0  0  0  0  0  0
    1.7708   19.5029  -20.4992 C   0  0  0  0  0  0  0  0  0  0  0  0
   -4.6126   23.4756  -27.0445 C   0  0  0  0  0  0  0  0  0  0  0  0
   -5.5592   22.7096  -26.6922 O   0  0  0  0  0  0  0  0  0  0  0  0
   -4.9999   24.3408  -28.1287 N   0  0  0  0  0  0  0  0  0  0  0  0
   -4.5801   25.4989  -28.7751 C   0  0  0  0  0  0  0  0  0  0  0  0
   -5.5678   25.8276  -29.8976 C   0  0  0  0  0  0  0  0  0  0  0  0
   -5.3082   24.9599  -30.9886 O   0  0  0  0  0  0  0  0  0  0  0  0
   -5.1545   23.6866  -30.4421 C   0  0  0  0  0  0  0  0  0  0  0  0
   -5.8425   23.4716  -29.1563 C   0  0  0  0  0  0  0  0  0  0  0  0
   -4.3429   23.7758  -24.1412 C   0  0  0  0  0  0  0  0  0  0  0  0
   -4.8371   24.9671  -24.2896 O   0  0  0  0  0  0  0  0  0  0  0  0
   -4.3149   27.0164  -25.2958 C   0  0  0  0  0  0  0  0  0  0  0  0
   -5.2935   26.1049  -24.4499 C   0  0  0  0  0  0  0  0  0  0  0  0
 35 36  1  0  0  0
 36 34  1  0  0  0
 34 33  1  0  0  0
 33  1  1  0  0  0
  1  2  1  0  0  0
  2 13  1  0  0  0
 13 14  2  0  0  0
 14 15  1  0  0  0
 15 16  2  0  0  0
 16 17  1  0  0  0
 17 18  1  0  0  0
 17 19  2  0  0  0
 19 20  1  0  0  0
 20 23  1  0  0  0
 23 24  1  0  0  0
 20 21  2  0  0  0
 21 22  1  0  0  0
  2  3  2  0  0  0
  3  4  1  0  0  0
  4  5  1  0  0  0
  4  6  2  0  0  0
  6  7  1  0  0  0
  7  8  2  0  0  0
  8  9  1  0  0  0
  9 10  1  0  0  0
 10 25  1  0  0  0
 25 26  2  0  0  0
 25 27  1  0  0  0
 27 28  1  0  0  0
 28 29  1  0  0  0
 29 30  1  0  0  0
 30 31  1  0  0  0
 31 32  1  0  0  0
 10  1  2  0  0  0
 32 27  1  0  0  0
 22 13  1  0  0  0
  9  3  1  0  0  0
 21 15  1  0  0  0
  5 11  1  0  0  0
  5 12  1  0  0  0
M  END
> <minimizedAffinity>
-8.10981

> <CNNscore>
0.8551744223

> <CNNaffinity>
7.4624147415

> <CNN_VS>
6.3816661835

> <CNNaffinity_variance>
0.0314152502

$$$$
[H]c1nc(N([H])[H])c2c(-c3sc4c(OC([H])([H])[H])c([H])c(C([H])([H])[H])c([H])c4c3[H])c(C([H])([H])OC([H])([H])C([H])([H])[H])c(C(=O)N3C([H])([H])C([H])([H])OC([H])([H])C3([H])[H])n2n1


 36 40  0  0  0  0  0  0  0  0999 V2000
   -3.0979   23.5035  -24.4017 C   0  0  0  0  0  0  0  0  0  0  0  0
   -1.9100   23.0703  -24.0653 C   0  0  0  0  0  0  0  0  0  0  0  0
   -1.1834   22.6242  -25.2372 C   0  0  0  0  0  0  0  0  0  0  0  0
    0.1542   22.2242  -25.3558 C   0  0  0  0  0  0  0  0  0  0  0  0
    0.9663   22.1317  -24.2288 N   0  0  0  0  0  0  0  0  0  0  0  0
    0.5839   22.0368  -26.6071 N   0  0  0  0  0  0  0  0  0  0  0  0
   -0.2147   22.2326  -27.6321 C   0  0  0  0  0  0  0  0  0  0  0  0
   -1.5335   22.6205  -27.5001 N   0  0  0  0  0  0  0  0  0  0  0  0
   -2.0272   22.8003  -26.2691 N   0  0  0  0  0  0  0  0  0  0  0  0
   -3.1867   23.2827  -25.8340 C   0  0  0  0  0  0  0  0  0  0  0  0
    1.4123   21.2515  -23.8930 H   0  0  0  0  0  0  0  0  0  0  0  0
    1.2198   22.9680  -23.6564 H   0  0  0  0  0  0  0  0  0  0  0  0
   -1.4296   22.5927  -22.7248 C   0  0  0  0  0  0  0  0  0  0  0  0
   -1.0421   21.2069  -22.6578 C   0  0  0  0  0  0  0  0  0  0  0  0
   -0.5874   20.7209  -21.5488 C   0  0  0  0  0  0  0  0  0  0  0  0
   -0.0587   19.4026  -21.3043 C   0  0  0  0  0  0  0  0  0  0  0  0
    0.4937   19.0733  -20.0972 C   0  0  0  0  0  0  0  0  0  0  0  0
    1.1049   17.6670  -20.0381 C   0  0  0  0  0  0  0  0  0  0  0  0
    0.6081   19.9012  -19.0348 C   0  0  0  0  0  0  0  0  0  0  0  0
    0.0790   21.2127  -19.2691 C   0  0  0  0  0  0  0  0  0  0  0  0
   -0.4878   21.5862  -20.4855 C   0  0  0  0  0  0  0  0  0  0  0  0
   -1.0855   23.0453  -21.1889 S   0  0  0  0  0  0  0  0  0  0  0  0
    0.0995   22.1661  -18.2983 O   0  0  0  0  0  0  0  0  0  0  0  0
    0.9557   22.0255  -17.1854 C   0  0  0  0  0  0  0  0  0  0  0  0
   -4.5140   23.2913  -26.3661 C   0  0  0  0  0  0  0  0  0  0  0  0
   -5.4430   22.4942  -26.0370 O   0  0  0  0  0  0  0  0  0  0  0  0
   -4.9232   24.1840  -27.4195 N   0  0  0  0  0  0  0  0  0  0  0  0
   -4.5301   25.3717  -28.0279 C   0  0  0  0  0  0  0  0  0  0  0  0
   -5.5285   25.7170  -29.1358 C   0  0  0  0  0  0  0  0  0  0  0  0
   -5.2547   24.8921  -30.2561 O   0  0  0  0  0  0  0  0  0  0  0  0
   -5.0725   23.6046  -29.7531 C   0  0  0  0  0  0  0  0  0  0  0  0
   -5.7512   23.3322  -28.4733 C   0  0  0  0  0  0  0  0  0  0  0  0
   -4.1922   24.0924  -23.5649 C   0  0  0  0  0  0  0  0  0  0  0  0
   -4.7891   23.2706  -22.7563 O   0  0  0  0  0  0  0  0  0  0  0  0
   -6.5166   21.6899  -22.7203 C   0  0  0  0  0  0  0  0  0  0  0  0
   -5.3456   22.4700  -21.9963 C   0  0  0  0  0  0  0  0  0  0  0  0
 35 36  1  0  0  0
 36 34  1  0  0  0
 34 33  1  0  0  0
 33  1  1  0  0  0
  1  2  1  0  0  0
  2 13  1  0  0  0
 13 14  2  0  0  0
 14 15  1  0  0  0
 15 16  2  0  0  0
 16 17  1  0  0  0
 17 18  1  0  0  0
 17 19  2  0  0  0
 19 20  1  0  0  0
 20 23  1  0  0  0
 23 24  1  0  0  0
 20 21  2  0  0  0
 21 22  1  0  0  0
  2  3  2  0  0  0
  3  4  1  0  0  0
  4  5  1  0  0  0
  4  6  2  0  0  0
  6  7  1  0  0  0
  7  8  2  0  0  0
  8  9  1  0  0  0
  9 10  1  0  0  0
 10 25  1  0  0  0
 25 26  2  0  0  0
 25 27  1  0  0  0
 27 28  1  0  0  0
 28 29  1  0  0  0
 29 30  1  0  0  0
 30 31  1  0  0  0
 31 32  1  0  0  0
 10  1  2  0  0  0
 32 27  1  0  0  0
 22 13  1  0  0  0
  9  3  1  0  0  0
 21 15  1  0  0  0
  5 11  1  0  0  0
  5 12  1  0  0  0
M  END
> <minimizedAffinity>
-7.72103

> <CNNscore>
0.7224742174

> <CNNaffinity>
7.3061537743

> <CNN_VS>
5.2785077095

> <CNNaffinity_variance>
0.1028262973

$$$$
[H]c1nc(N([H])[H])c2c(-c3sc4c(OC([H])([H])[H])c([H])c(C([H])([H])[H])c([H])c4c3[H])c(C([H])([H])OC([H])([H])C([H])([H])[H])c(C(=O)N3C([H])([H])C([H])([H])OC([H])([H])C3([H])[H])n2n1


 36 40  0  0  0  0  0  0  0  0999 V2000
   -2.5572   22.9555  -23.2537 C   0  0  0  0  0  0  0  0  0  0  0  0
   -1.3557   22.4395  -23.2094 C   0  0  0  0  0  0  0  0  0  0  0  0
   -0.8284   22.2691  -24.5485 C   0  0  0  0  0  0  0  0  0  0  0  0
    0.4570   21.8894  -24.9569 C   0  0  0  0  0  0  0  0  0  0  0  0
    1.4178   21.5255  -24.0176 N   0  0  0  0  0  0  0  0  0  0  0  0
    0.6919   21.9931  -26.2683 N   0  0  0  0  0  0  0  0  0  0  0  0
   -0.2359   22.4335  -27.0881 C   0  0  0  0  0  0  0  0  0  0  0  0
   -1.5014   22.7980  -26.6724 N   0  0  0  0  0  0  0  0  0  0  0  0
   -1.8029   22.6925  -25.3726 N   0  0  0  0  0  0  0  0  0  0  0  0
   -2.8625   23.0761  -24.6680 C   0  0  0  0  0  0  0  0  0  0  0  0
    1.8643   20.5852  -23.9634 H   0  0  0  0  0  0  0  0  0  0  0  0
    1.7917   22.2017  -23.3145 H   0  0  0  0  0  0  0  0  0  0  0  0
   -0.7106   21.6559  -22.1023 C   0  0  0  0  0  0  0  0  0  0  0  0
   -0.2493   22.4282  -20.9772 C   0  0  0  0  0  0  0  0  0  0  0  0
    0.2908   21.8291  -19.9662 C   0  0  0  0  0  0  0  0  0  0  0  0
    0.7204   22.4032  -18.7159 C   0  0  0  0  0  0  0  0  0  0  0  0
    1.1705   21.6158  -17.6922 C   0  0  0  0  0  0  0  0  0  0  0  0
    1.4866   22.3740  -16.3961 C   0  0  0  0  0  0  0  0  0  0  0  0
    1.2642   20.2676  -17.7222 C   0  0  0  0  0  0  0  0  0  0  0  0
    0.8438   19.6902  -18.9651 C   0  0  0  0  0  0  0  0  0  0  0  0
    0.3764   20.4588  -20.0287 C   0  0  0  0  0  0  0  0  0  0  0  0
   -0.3273   20.1533  -21.5756 S   0  0  0  0  0  0  0  0  0  0  0  0
    0.8886   18.3456  -19.1699 O   0  0  0  0  0  0  0  0  0  0  0  0
   -0.1820   17.5288  -18.7483 C   0  0  0  0  0  0  0  0  0  0  0  0
   -4.2507   23.2268  -24.9764 C   0  0  0  0  0  0  0  0  0  0  0  0
   -5.1167   22.3019  -24.9384 O   0  0  0  0  0  0  0  0  0  0  0  0
   -4.8113   24.4654  -25.4514 N   0  0  0  0  0  0  0  0  0  0  0  0
   -4.5189   25.8248  -25.4946 C   0  0  0  0  0  0  0  0  0  0  0  0
   -5.6647   26.5578  -26.1970 C   0  0  0  0  0  0  0  0  0  0  0  0
   -5.5400   26.3464  -27.5935 O   0  0  0  0  0  0  0  0  0  0  0  0
   -5.2762   24.9872  -27.7569 C   0  0  0  0  0  0  0  0  0  0  0  0
   -5.7682   24.1205  -26.6709 C   0  0  0  0  0  0  0  0  0  0  0  0
   -3.4893   23.3480  -22.1484 C   0  0  0  0  0  0  0  0  0  0  0  0
   -3.9211   22.3772  -21.4025 O   0  0  0  0  0  0  0  0  0  0  0  0
   -3.4167   21.2986  -19.3859 C   0  0  0  0  0  0  0  0  0  0  0  0
   -4.3221   21.4629  -20.6733 C   0  0  0  0  0  0  0  0  0  0  0  0
 35 36  1  0  0  0
 36 34  1  0  0  0
 34 33  1  0  0  0
 33  1  1  0  0  0
  1  2  1  0  0  0
  2 13  1  0  0  0
 13 14  2  0  0  0
 14 15  1  0  0  0
 15 16  2  0  0  0
 16 17  1  0  0  0
 17 18  1  0  0  0
 17 19  2  0  0  0
 19 20  1  0  0  0
 20 23  1  0  0  0
 23 24  1  0  0  0
 20 21  2  0  0  0
 21 22  1  0  0  0
  2  3  2  0  0  0
  3  4  1  0  0  0
  4  5  1  0  0  0
  4  6  2  0  0  0
  6  7  1  0  0  0
  7  8  2  0  0  0
  8  9  1  0  0  0
  9 10  1  0  0  0
 10 25  1  0  0  0
 25 26  2  0  0  0
 25 27  1  0  0  0
 27 28  1  0  0  0
 28 29  1  0  0  0
 29 30  1  0  0  0
 30 31  1  0  0  0
 31 32  1  0  0  0
 10  1  2  0  0  0
 32 27  1  0  0  0
 22 13  1  0  0  0
  9  3  1  0  0  0
 21 15  1  0  0  0
  5 11  1  0  0  0
  5 12  1  0  0  0
M  END
> <minimizedAffinity>
-7.11408

> <CNNscore>
0.5731058717

> <CNNaffinity>
6.8444185257

> <CNN_VS>
3.9225764275

> <CNNaffinity_variance>
0.1091163307

$$$$
[H]c1nc(N([H])[H])c2c(-c3sc4c(OC([H])([H])[H])c([H])c(C([H])([H])[H])c([H])c4c3[H])c(C([H])([H])OC([H])([H])C([H])([H])[H])c(C(=O)N3C([H])([H])C([H])([H])OC([H])([H])C3([H])[H])n2n1


 36 40  0  0  0  0  0  0  0  0999 V2000
   -2.3881   23.0510  -23.0987 C   0  0  0  0  0  0  0  0  0  0  0  0
   -1.1793   22.5525  -23.0534 C   0  0  0  0  0  0  0  0  0  0  0  0
   -0.6890   22.2916  -24.3920 C   0  0  0  0  0  0  0  0  0  0  0  0
    0.5888   21.8973  -24.8104 C   0  0  0  0  0  0  0  0  0  0  0  0
    1.5811   21.6123  -23.8765 N   0  0  0  0  0  0  0  0  0  0  0  0
    0.7842   21.9087  -26.1323 N   0  0  0  0  0  0  0  0  0  0  0  0
   -0.1725   22.2790  -26.9534 C   0  0  0  0  0  0  0  0  0  0  0  0
   -1.4301   22.6589  -26.5273 N   0  0  0  0  0  0  0  0  0  0  0  0
   -1.6923   22.6441  -25.2149 N   0  0  0  0  0  0  0  0  0  0  0  0
   -2.7359   23.0660  -24.5083 C   0  0  0  0  0  0  0  0  0  0  0  0
    2.0410   20.6832  -23.7684 H   0  0  0  0  0  0  0  0  0  0  0  0
    1.9665   22.3413  -23.2352 H   0  0  0  0  0  0  0  0  0  0  0  0
   -0.4923   21.8576  -21.9128 C   0  0  0  0  0  0  0  0  0  0  0  0
   -0.5749   20.4195  -21.9169 C   0  0  0  0  0  0  0  0  0  0  0  0
    0.0151   19.7405  -20.9876 C   0  0  0  0  0  0  0  0  0  0  0  0
    0.1353   18.3090  -20.8699 C   0  0  0  0  0  0  0  0  0  0  0  0
    0.8938   17.7402  -19.8842 C   0  0  0  0  0  0  0  0  0  0  0  0
    1.0022   16.2116  -19.9649 C   0  0  0  0  0  0  0  0  0  0  0  0
    1.5917   18.4149  -18.9434 C   0  0  0  0  0  0  0  0  0  0  0  0
    1.4722   19.8394  -19.0511 C   0  0  0  0  0  0  0  0  0  0  0  0
    0.7123   20.4551  -20.0429 C   0  0  0  0  0  0  0  0  0  0  0  0
    0.4349   22.0724  -20.5800 S   0  0  0  0  0  0  0  0  0  0  0  0
    2.0987   20.6687  -18.1727 O   0  0  0  0  0  0  0  0  0  0  0  0
    1.4517   21.0566  -16.9801 C   0  0  0  0  0  0  0  0  0  0  0  0
   -4.1343   23.1793  -24.7850 C   0  0  0  0  0  0  0  0  0  0  0  0
   -4.9670   22.2238  -24.7661 O   0  0  0  0  0  0  0  0  0  0  0  0
   -4.7464   24.4142  -25.2025 N   0  0  0  0  0  0  0  0  0  0  0  0
   -4.5018   25.7837  -25.1996 C   0  0  0  0  0  0  0  0  0  0  0  0
   -5.6858   26.5016  -25.8525 C   0  0  0  0  0  0  0  0  0  0  0  0
   -5.5815   26.3467  -27.2581 O   0  0  0  0  0  0  0  0  0  0  0  0
   -5.2745   25.0046  -27.4776 C   0  0  0  0  0  0  0  0  0  0  0  0
   -5.7148   24.0814  -26.4162 C   0  0  0  0  0  0  0  0  0  0  0  0
   -3.2926   23.5121  -21.9971 C   0  0  0  0  0  0  0  0  0  0  0  0
   -3.7725   22.5789  -21.2327 O   0  0  0  0  0  0  0  0  0  0  0  0
   -3.1887   21.3059  -19.3557 C   0  0  0  0  0  0  0  0  0  0  0  0
   -4.2089   21.6785  -20.5066 C   0  0  0  0  0  0  0  0  0  0  0  0
 35 36  1  0  0  0
 36 34  1  0  0  0
 34 33  1  0  0  0
 33  1  1  0  0  0
  1  2  1  0  0  0
  2 13  1  0  0  0
 13 14  2  0  0  0
 14 15  1  0  0  0
 15 16  2  0  0  0
 16 17  1  0  0  0
 17 18  1  0  0  0
 17 19  2  0  0  0
 19 20  1  0  0  0
 20 23  1  0  0  0
 23 24  1  0  0  0
 20 21  2  0  0  0
 21 22  1  0  0  0
  2  3  2  0  0  0
  3  4  1  0  0  0
  4  5  1  0  0  0
  4  6  2  0  0  0
  6  7  1  0  0  0
  7  8  2  0  0  0
  8  9  1  0  0  0
  9 10  1  0  0  0
 10 25  1  0  0  0
 25 26  2  0  0  0
 25 27  1  0  0  0
 27 28  1  0  0  0
 28 29  1  0  0  0
 29 30  1  0  0  0
 30 31  1  0  0  0
 31 32  1  0  0  0
 10  1  2  0  0  0
 32 27  1  0  0  0
 22 13  1  0  0  0
  9  3  1  0  0  0
 21 15  1  0  0  0
  5 11  1  0  0  0
  5 12  1  0  0  0
M  END
> <minimizedAffinity>
-7.09575

> <CNNscore>
0.5058132410

> <CNNaffinity>
6.8112473488

> <CNN_VS>
3.4452190399

> <CNNaffinity_variance>
0.2301137447

$$$$
[H]c1nc(N([H])[H])c2c(-c3sc4c(OC([H])([H])[H])c([H])c(C([H])([H])[H])c([H])c4c3[H])c(C([H])([H])OC([H])([H])C([H])([H])[H])c(C(=O)N3C([H])([H])C([H])([H])OC([H])([H])C3([H])[H])n2n1


 36 40  0  0  0  0  0  0  0  0999 V2000
   -2.0632   22.2348  -22.4500 C   0  0  0  0  0  0  0  0  0  0  0  0
   -0.8343   21.9032  -22.7528 C   0  0  0  0  0  0  0  0  0  0  0  0
   -0.6403   21.9364  -24.1886 C   0  0  0  0  0  0  0  0  0  0  0  0
    0.5397   21.7929  -24.9305 C   0  0  0  0  0  0  0  0  0  0  0  0
    1.7415   21.4934  -24.2950 N   0  0  0  0  0  0  0  0  0  0  0  0
    0.4259   22.0495  -26.2370 N   0  0  0  0  0  0  0  0  0  0  0  0
   -0.7239   22.4184  -26.7554 C   0  0  0  0  0  0  0  0  0  0  0  0
   -1.8810   22.5494  -26.0130 N   0  0  0  0  0  0  0  0  0  0  0  0
   -1.8339   22.2820  -24.7024 N   0  0  0  0  0  0  0  0  0  0  0  0
   -2.7236   22.4363  -23.7273 C   0  0  0  0  0  0  0  0  0  0  0  0
    2.2999   20.6298  -24.4646 H   0  0  0  0  0  0  0  0  0  0  0  0
    2.1922   22.1512  -23.6201 H   0  0  0  0  0  0  0  0  0  0  0  0
    0.1579   21.1279  -21.9341 C   0  0  0  0  0  0  0  0  0  0  0  0
   -0.2594   19.8092  -21.5316 C   0  0  0  0  0  0  0  0  0  0  0  0
    0.5464   19.0616  -20.8501 C   0  0  0  0  0  0  0  0  0  0  0  0
    0.3601   17.6920  -20.4416 C   0  0  0  0  0  0  0  0  0  0  0  0
    1.3596   16.9958  -19.8196 C   0  0  0  0  0  0  0  0  0  0  0  0
    1.0358   15.5206  -19.5485 C   0  0  0  0  0  0  0  0  0  0  0  0
    2.5867   17.4800  -19.5246 C   0  0  0  0  0  0  0  0  0  0  0  0
    2.7771   18.8438  -19.9230 C   0  0  0  0  0  0  0  0  0  0  0  0
    1.7846   19.5838  -20.5615 C   0  0  0  0  0  0  0  0  0  0  0  0
    1.6670   21.1410  -21.2980 S   0  0  0  0  0  0  0  0  0  0  0  0
    3.9505   19.4911  -19.6867 O   0  0  0  0  0  0  0  0  0  0  0  0
    5.0307   19.3497  -20.5837 C   0  0  0  0  0  0  0  0  0  0  0  0
   -4.1525   22.4043  -23.6810 C   0  0  0  0  0  0  0  0  0  0  0  0
   -4.8639   21.3554  -23.6573 O   0  0  0  0  0  0  0  0  0  0  0  0
   -4.9588   23.5963  -23.7365 N   0  0  0  0  0  0  0  0  0  0  0  0
   -4.8519   24.9698  -23.5431 C   0  0  0  0  0  0  0  0  0  0  0  0
   -6.2166   25.6153  -23.7968 C   0  0  0  0  0  0  0  0  0  0  0  0
   -6.4216   25.6897  -25.1978 O   0  0  0  0  0  0  0  0  0  0  0  0
   -6.0460   24.4487  -25.7101 C   0  0  0  0  0  0  0  0  0  0  0  0
   -6.1423   23.3258  -24.7601 C   0  0  0  0  0  0  0  0  0  0  0  0
   -2.7318   22.3807  -21.1173 C   0  0  0  0  0  0  0  0  0  0  0  0
   -1.9580   22.7198  -20.1315 O   0  0  0  0  0  0  0  0  0  0  0  0
   -0.7267   21.8120  -18.3583 C   0  0  0  0  0  0  0  0  0  0  0  0
   -1.2364   23.0600  -19.1871 C   0  0  0  0  0  0  0  0  0  0  0  0
 35 36  1  0  0  0
 36 34  1  0  0  0
 34 33  1  0  0  0
 33  1  1  0  0  0
  1  2  1  0  0  0
  2 13  1  0  0  0
 13 14  2  0  0  0
 14 15  1  0  0  0
 15 16  2  0  0  0
 16 17  1  0  0  0
 17 18  1  0  0  0
 17 19  2  0  0  0
 19 20  1  0  0  0
 20 23  1  0  0  0
 23 24  1  0  0  0
 20 21  2  0  0  0
 21 22  1  0  0  0
  2  3  2  0  0  0
  3  4  1  0  0  0
  4  5  1  0  0  0
  4  6  2  0  0  0
  6  7  1  0  0  0
  7  8  2  0  0  0
  8  9  1  0  0  0
  9 10  1  0  0  0
 10 25  1  0  0  0
 25 26  2  0  0  0
 25 27  1  0  0  0
 27 28  1  0  0  0
 28 29  1  0  0  0
 29 30  1  0  0  0
 30 31  1  0  0  0
 31 32  1  0  0  0
 10  1  2  0  0  0
 32 27  1  0  0  0
 22 13  1  0  0  0
  9  3  1  0  0  0
 21 15  1  0  0  0
  5 11  1  0  0  0
  5 12  1  0  0  0
M  END
> <minimizedAffinity>
-6.97970

> <CNNscore>
0.4830224216

> <CNNaffinity>
6.6111130714

> <CNN_VS>
3.1933157444

> <CNNaffinity_variance>
0.0744100213

$$$$
[H]c1nc(N([H])[H])c2c(-c3sc4c(OC([H])([H])[H])c([H])c(C([H])([H])[H])c([H])c4c3[H])c(C([H])([H])OC([H])([H])C([H])([H])[H])c(C(=O)N3C([H])([H])C([H])([H])OC([H])([H])C3([H])[H])n2n1


 36 40  0  0  0  0  0  0  0  0999 V2000
   -2.1556   23.3630  -22.9386 C   0  0  0  0  0  0  0  0  0  0  0  0
   -1.0151   22.7219  -22.9508 C   0  0  0  0  0  0  0  0  0  0  0  0
   -0.6312   22.3980  -24.3102 C   0  0  0  0  0  0  0  0  0  0  0  0
    0.5659   21.8501  -24.7901 C   0  0  0  0  0  0  0  0  0  0  0  0
    1.5644   21.4510  -23.9059 N   0  0  0  0  0  0  0  0  0  0  0  0
    0.6913   21.8323  -26.1203 N   0  0  0  0  0  0  0  0  0  0  0  0
   -0.2557   22.3122  -26.8947 C   0  0  0  0  0  0  0  0  0  0  0  0
   -1.4340   22.8434  -26.4080 N   0  0  0  0  0  0  0  0  0  0  0  0
   -1.6265   22.8660  -25.0836 N   0  0  0  0  0  0  0  0  0  0  0  0
   -2.5729   23.4141  -24.3284 C   0  0  0  0  0  0  0  0  0  0  0  0
    1.9137   20.4735  -23.8120 H   0  0  0  0  0  0  0  0  0  0  0  0
    2.0682   22.1307  -23.2931 H   0  0  0  0  0  0  0  0  0  0  0  0
   -0.3579   21.9538  -21.8401 C   0  0  0  0  0  0  0  0  0  0  0  0
   -0.5514   20.5266  -21.8682 C   0  0  0  0  0  0  0  0  0  0  0  0
    0.0056   19.7859  -20.9660 C   0  0  0  0  0  0  0  0  0  0  0  0
    0.0175   18.3474  -20.8773 C   0  0  0  0  0  0  0  0  0  0  0  0
    0.7522   17.7025  -19.9208 C   0  0  0  0  0  0  0  0  0  0  0  0
    0.7403   16.1720  -20.0318 C   0  0  0  0  0  0  0  0  0  0  0  0
    1.5215   18.3027  -18.9853 C   0  0  0  0  0  0  0  0  0  0  0  0
    1.5099   19.7340  -19.0642 C   0  0  0  0  0  0  0  0  0  0  0  0
    0.7773   20.4259  -20.0259 C   0  0  0  0  0  0  0  0  0  0  0  0
    0.6135   22.0701  -20.5266 S   0  0  0  0  0  0  0  0  0  0  0  0
    2.2186   20.4951  -18.1865 O   0  0  0  0  0  0  0  0  0  0  0  0
    1.6325   20.9043  -16.9698 C   0  0  0  0  0  0  0  0  0  0  0  0
   -3.9600   23.6947  -24.5335 C   0  0  0  0  0  0  0  0  0  0  0  0
   -4.4418   24.8215  -24.8577 O   0  0  0  0  0  0  0  0  0  0  0  0
   -4.9922   22.7155  -24.3106 N   0  0  0  0  0  0  0  0  0  0  0  0
   -5.1529   21.3387  -24.1924 C   0  0  0  0  0  0  0  0  0  0  0  0
   -6.6331   21.0295  -23.9543 C   0  0  0  0  0  0  0  0  0  0  0  0
   -6.9374   21.3197  -22.6002 O   0  0  0  0  0  0  0  0  0  0  0  0
   -6.3522   22.5557  -22.3285 C   0  0  0  0  0  0  0  0  0  0  0  0
   -6.1592   23.4267  -23.5019 C   0  0  0  0  0  0  0  0  0  0  0  0
   -2.9386   23.9349  -21.7966 C   0  0  0  0  0  0  0  0  0  0  0  0
   -3.2460   23.1017  -20.8495 O   0  0  0  0  0  0  0  0  0  0  0  0
   -2.5807   22.3940  -18.7186 C   0  0  0  0  0  0  0  0  0  0  0  0
   -3.5545   22.2980  -19.9622 C   0  0  0  0  0  0  0  0  0  0  0  0
 35 36  1  0  0  0
 36 34  1  0  0  0
 34 33  1  0  0  0
 33  1  1  0  0  0
  1  2  1  0  0  0
  2 13  1  0  0  0
 13 14  2  0  0  0
 14 15  1  0  0  0
 15 16  2  0  0  0
 16 17  1  0  0  0
 17 18  1  0  0  0
 17 19  2  0  0  0
 19 20  1  0  0  0
 20 23  1  0  0  0
 23 24  1  0  0  0
 20 21  2  0  0  0
 21 22  1  0  0  0
  2  3  2  0  0  0
  3  4  1  0  0  0
  4  5  1  0  0  0
  4  6  2  0  0  0
  6  7  1  0  0  0
  7  8  2  0  0  0
  8  9  1  0  0  0
  9 10  1  0  0  0
 10 25  1  0  0  0
 25 26  2  0  0  0
 25 27  1  0  0  0
 27 28  1  0  0  0
 28 29  1  0  0  0
 29 30  1  0  0  0
 30 31  1  0  0  0
 31 32  1  0  0  0
 10  1  2  0  0  0
 32 27  1  0  0  0
 22 13  1  0  0  0
  9  3  1  0  0  0
 21 15  1  0  0  0
  5 11  1  0  0  0
  5 12  1  0  0  0
M  END
> <minimizedAffinity>
-6.49586

> <CNNscore>
0.4389926493

> <CNNaffinity>
6.5808372498

> <CNN_VS>
2.8889391422

> <CNNaffinity_variance>
0.1655975878

$$$$
[H]c1nc(N([H])[H])c2c(-c3sc4c(OC([H])([H])[H])c([H])c(C([H])([H])[H])c([H])c4c3[H])c(C([H])([H])OC([H])([H])C([H])([H])[H])c(C(=O)N3C([H])([H])C([H])([H])OC([H])([H])C3([H])[H])n2n1


 36 40  0  0  0  0  0  0  0  0999 V2000
   -2.2695   23.2997  -22.8642 C   0  0  0  0  0  0  0  0  0  0  0  0
   -1.1350   22.6482  -22.8760 C   0  0  0  0  0  0  0  0  0  0  0  0
   -0.7198   22.3795  -24.2383 C   0  0  0  0  0  0  0  0  0  0  0  0
    0.4839   21.8408  -24.7117 C   0  0  0  0  0  0  0  0  0  0  0  0
    1.4561   21.3936  -23.8212 N   0  0  0  0  0  0  0  0  0  0  0  0
    0.6426   21.8792  -26.0380 N   0  0  0  0  0  0  0  0  0  0  0  0
   -0.2802   22.4019  -26.8139 C   0  0  0  0  0  0  0  0  0  0  0  0
   -1.4654   22.9234  -26.3339 N   0  0  0  0  0  0  0  0  0  0  0  0
   -1.6911   22.8906  -25.0151 N   0  0  0  0  0  0  0  0  0  0  0  0
   -2.6511   23.4151  -24.2604 C   0  0  0  0  0  0  0  0  0  0  0  0
    1.7941   20.4095  -23.7614 H   0  0  0  0  0  0  0  0  0  0  0  0
    1.9505   22.0410  -23.1672 H   0  0  0  0  0  0  0  0  0  0  0  0
   -0.5129   21.8260  -21.7838 C   0  0  0  0  0  0  0  0  0  0  0  0
    0.0666   22.5701  -20.6950 C   0  0  0  0  0  0  0  0  0  0  0  0
    0.5963   21.9398  -19.6976 C   0  0  0  0  0  0  0  0  0  0  0  0
    1.1323   22.4912  -18.4786 C   0  0  0  0  0  0  0  0  0  0  0  0
    1.5562   21.6817  -17.4610 C   0  0  0  0  0  0  0  0  0  0  0  0
    1.9978   22.4275  -16.1947 C   0  0  0  0  0  0  0  0  0  0  0  0
    1.5270   20.3303  -17.4695 C   0  0  0  0  0  0  0  0  0  0  0  0
    1.0003   19.7748  -18.6815 C   0  0  0  0  0  0  0  0  0  0  0  0
    0.5557   20.5665  -19.7378 C   0  0  0  0  0  0  0  0  0  0  0  0
   -0.2424   20.3029  -21.2460 S   0  0  0  0  0  0  0  0  0  0  0  0
    0.9149   18.4288  -18.8625 O   0  0  0  0  0  0  0  0  0  0  0  0
    1.9983   17.7193  -19.4231 C   0  0  0  0  0  0  0  0  0  0  0  0
   -4.0300   23.7184  -24.4874 C   0  0  0  0  0  0  0  0  0  0  0  0
   -4.4889   24.8546  -24.8120 O   0  0  0  0  0  0  0  0  0  0  0  0
   -5.0808   22.7538  -24.2892 N   0  0  0  0  0  0  0  0  0  0  0  0
   -5.2645   21.3789  -24.1834 C   0  0  0  0  0  0  0  0  0  0  0  0
   -6.7533   21.0909  -23.9730 C   0  0  0  0  0  0  0  0  0  0  0  0
   -7.0765   21.3767  -22.6223 O   0  0  0  0  0  0  0  0  0  0  0  0
   -6.4773   22.6016  -22.3320 C   0  0  0  0  0  0  0  0  0  0  0  0
   -6.2506   23.4774  -23.4957 C   0  0  0  0  0  0  0  0  0  0  0  0
   -3.0758   23.8295  -21.7181 C   0  0  0  0  0  0  0  0  0  0  0  0
   -3.3718   22.9702  -20.7910 O   0  0  0  0  0  0  0  0  0  0  0  0
   -2.9023   22.4123  -18.5655 C   0  0  0  0  0  0  0  0  0  0  0  0
   -3.6671   22.1400  -19.9239 C   0  0  0  0  0  0  0  0  0  0  0  0
 35 36  1  0  0  0
 36 34  1  0  0  0
 34 33  1  0  0  0
 33  1  1  0  0  0
  1  2  1  0  0  0
  2 13  1  0  0  0
 13 14  2  0  0  0
 14 15  1  0  0  0
 15 16  2  0  0  0
 16 17  1  0  0  0
 17 18  1  0  0  0
 17 19  2  0  0  0
 19 20  1  0  0  0
 20 23  1  0  0  0
 23 24  1  0  0  0
 20 21  2  0  0  0
 21 22  1  0  0  0
  2  3  2  0  0  0
  3  4  1  0  0  0
  4  5  1  0  0  0
  4  6  2  0  0  0
  6  7  1  0  0  0
  7  8  2  0  0  0
  8  9  1  0  0  0
  9 10  1  0  0  0
 10 25  1  0  0  0
 25 26  2  0  0  0
 25 27  1  0  0  0
 27 28  1  0  0  0
 28 29  1  0  0  0
 29 30  1  0  0  0
 30 31  1  0  0  0
 31 32  1  0  0  0
 10  1  2  0  0  0
 32 27  1  0  0  0
 22 13  1  0  0  0
  9  3  1  0  0  0
 21 15  1  0  0  0
  5 11  1  0  0  0
  5 12  1  0  0  0
M  END
> <minimizedAffinity>
-6.36869

> <CNNscore>
0.4185109437

> <CNNaffinity>
6.5789575577

> <CNN_VS>
2.7533657551

> <CNNaffinity_variance>
0.1315701902

$$$$
[H]c1nc(N([H])[H])c2c(-c3sc4c(OC([H])([H])[H])c([H])c(C([H])([H])[H])c([H])c4c3[H])c(C([H])([H])OC([H])([H])C([H])([H])[H])c(C(=O)N3C([H])([H])C([H])([H])OC([H])([H])C3([H])[H])n2n1


 36 40  0  0  0  0  0  0  0  0999 V2000
   -2.3028   21.7521  -22.4410 C   0  0  0  0  0  0  0  0  0  0  0  0
   -1.0241   21.5391  -22.6185 C   0  0  0  0  0  0  0  0  0  0  0  0
   -0.6727   21.7039  -24.0148 C   0  0  0  0  0  0  0  0  0  0  0  0
    0.5914   21.7099  -24.6193 C   0  0  0  0  0  0  0  0  0  0  0  0
    1.7346   21.4502  -23.8685 N   0  0  0  0  0  0  0  0  0  0  0  0
    0.6048   22.0632  -25.9080 N   0  0  0  0  0  0  0  0  0  0  0  0
   -0.5058   22.3862  -26.5316 C   0  0  0  0  0  0  0  0  0  0  0  0
   -1.7463   22.3693  -25.9247 N   0  0  0  0  0  0  0  0  0  0  0  0
   -1.8253   22.0001  -24.6407 N   0  0  0  0  0  0  0  0  0  0  0  0
   -2.8293   22.0073  -23.7698 C   0  0  0  0  0  0  0  0  0  0  0  0
    2.3789   20.6475  -24.0325 H   0  0  0  0  0  0  0  0  0  0  0  0
    2.0495   22.0825  -23.0990 H   0  0  0  0  0  0  0  0  0  0  0  0
   -0.0694   20.7758  -21.7458 C   0  0  0  0  0  0  0  0  0  0  0  0
    0.8196   21.5764  -20.9434 C   0  0  0  0  0  0  0  0  0  0  0  0
    1.6534   20.9998  -20.1403 C   0  0  0  0  0  0  0  0  0  0  0  0
    2.5463   21.6151  -19.1908 C   0  0  0  0  0  0  0  0  0  0  0  0
    3.2893   20.8608  -18.3250 C   0  0  0  0  0  0  0  0  0  0  0  0
    4.1052   21.6730  -17.3104 C   0  0  0  0  0  0  0  0  0  0  0  0
    3.2800   19.5110  -18.2538 C   0  0  0  0  0  0  0  0  0  0  0  0
    2.3981   18.8920  -19.1993 C   0  0  0  0  0  0  0  0  0  0  0  0
    1.6233   19.6265  -20.0941 C   0  0  0  0  0  0  0  0  0  0  0  0
    0.3844   19.2834  -21.2467 S   0  0  0  0  0  0  0  0  0  0  0  0
    2.2798   17.5383  -19.2731 O   0  0  0  0  0  0  0  0  0  0  0  0
    3.1284   16.7984  -20.1239 C   0  0  0  0  0  0  0  0  0  0  0  0
   -4.2465   21.8650  -23.8965 C   0  0  0  0  0  0  0  0  0  0  0  0
   -4.8555   20.7873  -24.1694 O   0  0  0  0  0  0  0  0  0  0  0  0
   -5.1513   22.9813  -23.8008 N   0  0  0  0  0  0  0  0  0  0  0  0
   -5.1929   24.2863  -23.3206 C   0  0  0  0  0  0  0  0  0  0  0  0
   -6.5805   24.8726  -23.5934 C   0  0  0  0  0  0  0  0  0  0  0  0
   -6.6529   25.2285  -24.9640 O   0  0  0  0  0  0  0  0  0  0  0  0
   -6.1145   24.1546  -25.6715 C   0  0  0  0  0  0  0  0  0  0  0  0
   -6.1981   22.8514  -24.9878 C   0  0  0  0  0  0  0  0  0  0  0  0
   -3.1275   21.7383  -21.1904 C   0  0  0  0  0  0  0  0  0  0  0  0
   -2.5504   22.2120  -20.1283 O   0  0  0  0  0  0  0  0  0  0  0  0
   -1.5126   21.5468  -18.1370 C   0  0  0  0  0  0  0  0  0  0  0  0
   -2.0148   22.6823  -19.1181 C   0  0  0  0  0  0  0  0  0  0  0  0
 35 36  1  0  0  0
 36 34  1  0  0  0
 34 33  1  0  0  0
 33  1  1  0  0  0
  1  2  1  0  0  0
  2 13  1  0  0  0
 13 14  2  0  0  0
 14 15  1  0  0  0
 15 16  2  0  0  0
 16 17  1  0  0  0
 17 18  1  0  0  0
 17 19  2  0  0  0
 19 20  1  0  0  0
 20 23  1  0  0  0
 23 24  1  0  0  0
 20 21  2  0  0  0
 21 22  1  0  0  0
  2  3  2  0  0  0
  3  4  1  0  0  0
  4  5  1  0  0  0
  4  6  2  0  0  0
  6  7  1  0  0  0
  7  8  2  0  0  0
  8  9  1  0  0  0
  9 10  1  0  0  0
 10 25  1  0  0  0
 25 26  2  0  0  0
 25 27  1  0  0  0
 27 28  1  0  0  0
 28 29  1  0  0  0
 29 30  1  0  0  0
 30 31  1  0  0  0
 31 32  1  0  0  0
 10  1  2  0  0  0
 32 27  1  0  0  0
 22 13  1  0  0  0
  9  3  1  0  0  0
 21 15  1  0  0  0
  5 11  1  0  0  0
  5 12  1  0  0  0
M  END
> <minimizedAffinity>
-6.46678

> <CNNscore>
0.2812118232

> <CNNaffinity>
6.3717088699

> <CNN_VS>
1.7917999029

> <CNNaffinity_variance>
0.0787873268

$$$$
[H]c1nc(N([H])[H])c2c(-c3sc4c(OC([H])([H])[H])c([H])c(C([H])([H])[H])c([H])c4c3[H])c(C([H])([H])OC([H])([H])C([H])([H])[H])c(C(=O)N3C([H])([H])C([H])([H])OC([H])([H])C3([H])[H])n2n1


 36 40  0  0  0  0  0  0  0  0999 V2000
   -4.1587   24.6534  -25.1167 C   0  0  0  0  0  0  0  0  0  0  0  0
   -3.3228   23.7547  -24.6635 C   0  0  0  0  0  0  0  0  0  0  0  0
   -2.6474   23.0924  -25.7614 C   0  0  0  0  0  0  0  0  0  0  0  0
   -1.5851   22.1792  -25.7314 C   0  0  0  0  0  0  0  0  0  0  0  0
   -1.0859   21.7161  -24.5171 N   0  0  0  0  0  0  0  0  0  0  0  0
   -1.0589   21.8780  -26.9223 N   0  0  0  0  0  0  0  0  0  0  0  0
   -1.5220   22.4257  -28.0234 C   0  0  0  0  0  0  0  0  0  0  0  0
   -2.5745   23.3196  -28.0388 N   0  0  0  0  0  0  0  0  0  0  0  0
   -3.1578   23.6410  -26.8778 N   0  0  0  0  0  0  0  0  0  0  0  0
   -4.0812   24.5435  -26.5624 C   0  0  0  0  0  0  0  0  0  0  0  0
   -1.0968   20.7183  -24.2162 H   0  0  0  0  0  0  0  0  0  0  0  0
   -0.6199   22.3500  -23.8299 H   0  0  0  0  0  0  0  0  0  0  0  0
   -3.3135   23.0707  -23.3264 C   0  0  0  0  0  0  0  0  0  0  0  0
   -2.1613   23.3284  -22.5011 C   0  0  0  0  0  0  0  0  0  0  0  0
   -2.0869   22.8034  -21.3214 C   0  0  0  0  0  0  0  0  0  0  0  0
   -1.0785   23.0158  -20.3137 C   0  0  0  0  0  0  0  0  0  0  0  0
   -1.2004   22.4738  -19.0640 C   0  0  0  0  0  0  0  0  0  0  0  0
   -0.0961   22.8840  -18.0806 C   0  0  0  0  0  0  0  0  0  0  0  0
   -2.2304   21.7093  -18.6375 C   0  0  0  0  0  0  0  0  0  0  0  0
   -3.2346   21.4892  -19.6366 C   0  0  0  0  0  0  0  0  0  0  0  0
   -3.1472   22.0272  -20.9185 C   0  0  0  0  0  0  0  0  0  0  0  0
   -4.1670   22.1121  -22.3091 S   0  0  0  0  0  0  0  0  0  0  0  0
   -4.3325   20.7279  -19.3783 O   0  0  0  0  0  0  0  0  0  0  0  0
   -5.2740   21.1467  -18.4142 C   0  0  0  0  0  0  0  0  0  0  0  0
   -5.1796   25.1211  -27.2727 C   0  0  0  0  0  0  0  0  0  0  0  0
   -6.3667   25.2171  -26.8386 O   0  0  0  0  0  0  0  0  0  0  0  0
   -5.0649   25.5983  -28.6267 N   0  0  0  0  0  0  0  0  0  0  0  0
   -4.0952   25.9886  -29.5446 C   0  0  0  0  0  0  0  0  0  0  0  0
   -4.7822   26.3962  -30.8505 C   0  0  0  0  0  0  0  0  0  0  0  0
   -5.1598   25.2178  -31.5428 O   0  0  0  0  0  0  0  0  0  0  0  0
   -5.7412   24.3801  -30.5920 C   0  0  0  0  0  0  0  0  0  0  0  0
   -6.3290   25.0688  -29.4289 C   0  0  0  0  0  0  0  0  0  0  0  0
   -5.0497   25.6104  -24.3856 C   0  0  0  0  0  0  0  0  0  0  0  0
   -6.0256   25.0753  -23.7174 O   0  0  0  0  0  0  0  0  0  0  0  0
   -8.3367   25.2389  -23.3761 C   0  0  0  0  0  0  0  0  0  0  0  0
   -6.9452   24.5441  -23.0844 C   0  0  0  0  0  0  0  0  0  0  0  0
 35 36  1  0  0  0
 36 34  1  0  0  0
 34 33  1  0  0  0
 33  1  1  0  0  0
  1  2  1  0  0  0
  2 13  1  0  0  0
 13 14  2  0  0  0
 14 15  1  0  0  0
 15 16  2  0  0  0
 16 17  1  0  0  0
 17 18  1  0  0  0
 17 19  2  0  0  0
 19 20  1  0  0  0
 20 23  1  0  0  0
 23 24  1  0  0  0
 20 21  2  0  0  0
 21 22  1  0  0  0
  2  3  2  0  0  0
  3  4  1  0  0  0
  4  5  1  0  0  0
  4  6  2  0  0  0
  6  7  1  0  0  0
  7  8  2  0  0  0
  8  9  1  0  0  0
  9 10  1  0  0  0
 10 25  1  0  0  0
 25 26  2  0  0  0
 25 27  1  0  0  0
 27 28  1  0  0  0
 28 29  1  0  0  0
 29 30  1  0  0  0
 30 31  1  0  0  0
 31 32  1  0  0  0
 10  1  2  0  0  0
 32 27  1  0  0  0
 22 13  1  0  0  0
  9  3  1  0  0  0
 21 15  1  0  0  0
  5 11  1  0  0  0
  5 12  1  0  0  0
M  END
> <minimizedAffinity>
-7.51902

> <CNNscore>
0.1934951246

> <CNNaffinity>
6.9710946083

> <CNN_VS>
1.3488727808

> <CNNaffinity_variance>
0.4198221266

$$$$
[H]c1nc(N([H])C(=O)c2c([H])c([H])c(C3([H])C([H])([H])C([H])([H])N(C([H])(C([H])([H])[H])C([H])([H])[H])C([H])([H])C3([H])[H])c([H])c2[H])c([H])c(Oc2c(OC([H])([H])[H])c([H])c3c(c2[H])c([H])c([H])n3C(=O)N([H])C([H])([H])[H])c1[H]


 42 46  0  0  0  0  0  0  0  0999 V2000
    0.7927   21.4612  -23.9156 C   0  0  0  0  0  0  0  0  0  0  0  0
    2.0413   21.1328  -23.4316 C   0  0  0  0  0  0  0  0  0  0  0  0
    2.2297   20.8017  -22.0915 C   0  0  0  0  0  0  0  0  0  0  0  0
    1.1681   20.8065  -21.2687 N   0  0  0  0  0  0  0  0  0  0  0  0
   -0.0681   21.1234  -21.7127 C   0  0  0  0  0  0  0  0  0  0  0  0
   -0.2875   21.4553  -23.0300 C   0  0  0  0  0  0  0  0  0  0  0  0
   -1.1848   21.1331  -20.8386 N   0  0  0  0  0  0  0  0  0  0  0  0
   -1.5098   22.3513  -20.1731 C   0  0  0  0  0  0  0  0  0  0  0  0
   -0.8450   23.3919  -20.3497 O   0  0  0  0  0  0  0  0  0  0  0  0
   -1.7396   20.2607  -20.6938 H   0  0  0  0  0  0  0  0  0  0  0  0
   -2.6583   22.4203  -19.2442 C   0  0  0  0  0  0  0  0  0  0  0  0
   -3.9549   22.2247  -19.6677 C   0  0  0  0  0  0  0  0  0  0  0  0
   -4.9889   22.3127  -18.7517 C   0  0  0  0  0  0  0  0  0  0  0  0
   -4.7978   22.5883  -17.4188 C   0  0  0  0  0  0  0  0  0  0  0  0
   -3.4827   22.7796  -17.0241 C   0  0  0  0  0  0  0  0  0  0  0  0
   -2.4318   22.7002  -17.9048 C   0  0  0  0  0  0  0  0  0  0  0  0
   -5.9611   22.6549  -16.5229 C   0  0  0  0  0  0  0  0  0  0  0  0
   -5.6280   23.3276  -15.2039 C   0  0  0  0  0  0  0  0  0  0  0  0
   -5.5521   22.3449  -14.0608 C   0  0  0  0  0  0  0  0  0  0  0  0
   -6.8431   21.7825  -13.8166 N   0  0  0  0  0  0  0  0  0  0  0  0
   -7.5311   21.4729  -15.0691 C   0  0  0  0  0  0  0  0  0  0  0  0
   -6.5544   21.3168  -16.2165 C   0  0  0  0  0  0  0  0  0  0  0  0
   -7.7214   22.6659  -13.0812 C   0  0  0  0  0  0  0  0  0  0  0  0
   -9.0214   21.9568  -12.7820 C   0  0  0  0  0  0  0  0  0  0  0  0
   -7.1268   23.2361  -11.8400 C   0  0  0  0  0  0  0  0  0  0  0  0
    0.5632   21.7950  -25.2376 O   0  0  0  0  0  0  0  0  0  0  0  0
   -5.8485   24.5913  -29.9380 C   0  0  0  0  0  0  0  0  0  0  0  0
   -4.8386   24.0569  -28.9708 N   0  0  0  0  0  0  0  0  0  0  0  0
   -5.3018   23.5772  -27.7650 C   0  0  0  0  0  0  0  0  0  0  0  0
   -6.6009   23.6552  -27.6218 O   0  0  0  0  0  0  0  0  0  0  0  0
   -4.6065   23.0245  -26.6787 N   0  0  0  0  0  0  0  0  0  0  0  0
   -5.2277   22.5832  -25.5233 C   0  0  0  0  0  0  0  0  0  0  0  0
   -4.2852   22.0986  -24.6672 C   0  0  0  0  0  0  0  0  0  0  0  0
   -3.0592   22.2303  -25.2767 C   0  0  0  0  0  0  0  0  0  0  0  0
   -1.7879   21.9039  -24.8674 C   0  0  0  0  0  0  0  0  0  0  0  0
   -0.6932   22.1348  -25.6721 C   0  0  0  0  0  0  0  0  0  0  0  0
   -0.9230   22.7053  -26.9018 C   0  0  0  0  0  0  0  0  0  0  0  0
   -2.1894   23.0385  -27.3274 C   0  0  0  0  0  0  0  0  0  0  0  0
   -3.2930   22.8134  -26.5345 C   0  0  0  0  0  0  0  0  0  0  0  0
   -3.8830   24.1079  -29.3232 H   0  0  0  0  0  0  0  0  0  0  0  0
    0.1615   22.9444  -27.7258 O   0  0  0  0  0  0  0  0  0  0  0  0
    0.0136   23.4722  -29.0340 C   0  0  0  0  0  0  0  0  0  0  0  0
 27 28  1  0  0  0
 28 29  1  0  0  0
 29 30  2  0  0  0
 29 31  1  0  0  0
 31 32  1  0  0  0
 32 33  2  0  0  0
 33 34  1  0  0  0
 34 35  2  0  0  0
 35 36  1  0  0  0
 36 26  1  0  0  0
 26  1  1  0  0  0
  1  2  2  0  0  0
  2  3  1  0  0  0
  3  4  2  0  0  0
  4  5  1  0  0  0
  5  7  1  0  0  0
  7  8  1  0  0  0
  8  9  2  0  0  0
  8 11  1  0  0  0
 11 12  2  0  0  0
 12 13  1  0  0  0
 13 14  2  0  0  0
 14 15  1  0  0  0
 15 16  2  0  0  0
 14 17  1  0  0  0
 17 18  1  0  0  0
 18 19  1  0  0  0
 19 20  1  0  0  0
 20 21  1  0  0  0
 21 22  1  0  0  0
 20 23  1  0  0  0
 23 24  1  0  0  0
 23 25  1  0  0  0
  5  6  2  0  0  0
 36 37  2  0  0  0
 37 41  1  0  0  0
 41 42  1  0  0  0
 37 38  1  0  0  0
 38 39  2  0  0  0
 39 31  1  0  0  0
 39 34  1  0  0  0
  6  1  1  0  0  0
 16 11  1  0  0  0
 22 17  1  0  0  0
 28 40  1  0  0  0
  7 10  1  0  0  0
M  END
> <minimizedAffinity>
-8.38542

> <CNNscore>
0.4799315035

> <CNNaffinity>
7.0956168175

> <CNN_VS>
3.4054100513

> <CNNaffinity_variance>
0.1316148639

$$$$
[H]c1nc(N([H])C(=O)c2c([H])c([H])c(C3([H])C([H])([H])C([H])([H])N(C([H])(C([H])([H])[H])C([H])([H])[H])C([H])([H])C3([H])[H])c([H])c2[H])c([H])c(Oc2c(OC([H])([H])[H])c([H])c3c(c2[H])c([H])c([H])n3C(=O)N([H])C([H])([H])[H])c1[H]


 42 46  0  0  0  0  0  0  0  0999 V2000
   -3.9284   22.9535  -26.7589 C   0  0  0  0  0  0  0  0  0  0  0  0
   -3.2484   23.1406  -27.9437 C   0  0  0  0  0  0  0  0  0  0  0  0
   -1.8601   23.0388  -28.0007 C   0  0  0  0  0  0  0  0  0  0  0  0
   -1.1858   22.7528  -26.8748 N   0  0  0  0  0  0  0  0  0  0  0  0
   -1.8233   22.5636  -25.6986 C   0  0  0  0  0  0  0  0  0  0  0  0
   -3.1932   22.6576  -25.6086 C   0  0  0  0  0  0  0  0  0  0  0  0
   -1.1062   22.2682  -24.5113 N   0  0  0  0  0  0  0  0  0  0  0  0
    0.2080   21.7292  -24.6334 C   0  0  0  0  0  0  0  0  0  0  0  0
    0.7311   21.5242  -25.7470 O   0  0  0  0  0  0  0  0  0  0  0  0
   -1.5467   22.4419  -23.5809 H   0  0  0  0  0  0  0  0  0  0  0  0
    1.0008   21.3945  -23.4308 C   0  0  0  0  0  0  0  0  0  0  0  0
    0.4307   21.3070  -22.1794 C   0  0  0  0  0  0  0  0  0  0  0  0
    1.2278   21.0002  -21.0902 C   0  0  0  0  0  0  0  0  0  0  0  0
    2.5802   20.7725  -21.1822 C   0  0  0  0  0  0  0  0  0  0  0  0
    3.1235   20.8676  -22.4541 C   0  0  0  0  0  0  0  0  0  0  0  0
    2.3636   21.1701  -23.5574 C   0  0  0  0  0  0  0  0  0  0  0  0
    3.3403   20.4471  -19.9670 C   0  0  0  0  0  0  0  0  0  0  0  0
    3.4802   21.6435  -19.0437 C   0  0  0  0  0  0  0  0  0  0  0  0
    4.8779   22.2132  -19.0493 C   0  0  0  0  0  0  0  0  0  0  0  0
    5.7907   21.2672  -18.4884 N   0  0  0  0  0  0  0  0  0  0  0  0
    5.4975   19.9110  -18.9498 C   0  0  0  0  0  0  0  0  0  0  0  0
    4.7125   19.9217  -20.2454 C   0  0  0  0  0  0  0  0  0  0  0  0
    5.7483   21.2199  -17.0432 C   0  0  0  0  0  0  0  0  0  0  0  0
    5.5155   22.6086  -16.4959 C   0  0  0  0  0  0  0  0  0  0  0  0
    4.7612   20.2540  -16.4849 C   0  0  0  0  0  0  0  0  0  0  0  0
   -5.3044   23.0452  -26.6597 O   0  0  0  0  0  0  0  0  0  0  0  0
   -9.1437   27.1591  -20.3860 C   0  0  0  0  0  0  0  0  0  0  0  0
   -8.4674   26.2767  -21.3885 N   0  0  0  0  0  0  0  0  0  0  0  0
   -8.2851   24.9527  -21.0526 C   0  0  0  0  0  0  0  0  0  0  0  0
   -8.7406   24.6341  -19.8673 O   0  0  0  0  0  0  0  0  0  0  0  0
   -7.6940   23.9046  -21.7744 N   0  0  0  0  0  0  0  0  0  0  0  0
   -7.5880   22.6126  -21.2898 C   0  0  0  0  0  0  0  0  0  0  0  0
   -6.9750   21.8342  -22.2249 C   0  0  0  0  0  0  0  0  0  0  0  0
   -6.6888   22.6303  -23.3094 C   0  0  0  0  0  0  0  0  0  0  0  0
   -6.0847   22.3615  -24.5148 C   0  0  0  0  0  0  0  0  0  0  0  0
   -5.9077   23.3446  -25.4642 C   0  0  0  0  0  0  0  0  0  0  0  0
   -6.3596   24.6065  -25.1577 C   0  0  0  0  0  0  0  0  0  0  0  0
   -6.9665   24.8932  -23.9555 C   0  0  0  0  0  0  0  0  0  0  0  0
   -7.1507   23.9210  -22.9972 C   0  0  0  0  0  0  0  0  0  0  0  0
   -8.2063   26.7699  -22.2419 H   0  0  0  0  0  0  0  0  0  0  0  0
   -6.1932   25.6078  -26.0968 O   0  0  0  0  0  0  0  0  0  0  0  0
   -5.5121   26.8159  -25.7995 C   0  0  0  0  0  0  0  0  0  0  0  0
 27 28  1  0  0  0
 28 29  1  0  0  0
 29 30  2  0  0  0
 29 31  1  0  0  0
 31 32  1  0  0  0
 32 33  2  0  0  0
 33 34  1  0  0  0
 34 35  2  0  0  0
 35 36  1  0  0  0
 36 26  1  0  0  0
 26  1  1  0  0  0
  1  2  2  0  0  0
  2  3  1  0  0  0
  3  4  2  0  0  0
  4  5  1  0  0  0
  5  7  1  0  0  0
  7  8  1  0  0  0
  8  9  2  0  0  0
  8 11  1  0  0  0
 11 12  2  0  0  0
 12 13  1  0  0  0
 13 14  2  0  0  0
 14 15  1  0  0  0
 15 16  2  0  0  0
 14 17  1  0  0  0
 17 18  1  0  0  0
 18 19  1  0  0  0
 19 20  1  0  0  0
 20 21  1  0  0  0
 21 22  1  0  0  0
 20 23  1  0  0  0
 23 24  1  0  0  0
 23 25  1  0  0  0
  5  6  2  0  0  0
 36 37  2  0  0  0
 37 41  1  0  0  0
 41 42  1  0  0  0
 37 38  1  0  0  0
 38 39  2  0  0  0
 39 31  1  0  0  0
 39 34  1  0  0  0
  6  1  1  0  0  0
 16 11  1  0  0  0
 22 17  1  0  0  0
 28 40  1  0  0  0
  7 10  1  0  0  0
M  END
> <minimizedAffinity>
-8.89799

> <CNNscore>
0.4046986997

> <CNNaffinity>
6.8632316589

> <CNN_VS>
2.7775409222

> <CNNaffinity_variance>
0.0845483691

$$$$
[H]c1nc(N([H])C(=O)c2c([H])c([H])c(C3([H])C([H])([H])C([H])([H])N(C([H])(C([H])([H])[H])C([H])([H])[H])C([H])([H])C3([H])[H])c([H])c2[H])c([H])c(Oc2c(OC([H])([H])[H])c([H])c3c(c2[H])c([H])c([H])n3C(=O)N([H])C([H])([H])[H])c1[H]


 42 46  0  0  0  0  0  0  0  0999 V2000
   -4.1208   22.8013  -26.7892 C   0  0  0  0  0  0  0  0  0  0  0  0
   -3.4513   23.2187  -27.9200 C   0  0  0  0  0  0  0  0  0  0  0  0
   -2.0684   23.0878  -28.0273 C   0  0  0  0  0  0  0  0  0  0  0  0
   -1.3889   22.5439  -27.0043 N   0  0  0  0  0  0  0  0  0  0  0  0
   -2.0161   22.1250  -25.8832 C   0  0  0  0  0  0  0  0  0  0  0  0
   -3.3804   22.2406  -25.7458 C   0  0  0  0  0  0  0  0  0  0  0  0
   -1.2934   21.5573  -24.8032 N   0  0  0  0  0  0  0  0  0  0  0  0
    0.0171   22.0505  -24.5352 C   0  0  0  0  0  0  0  0  0  0  0  0
    0.5263   22.9619  -25.2177 O   0  0  0  0  0  0  0  0  0  0  0  0
   -1.7230   20.7953  -24.2334 H   0  0  0  0  0  0  0  0  0  0  0  0
    0.8213   21.4920  -23.4270 C   0  0  0  0  0  0  0  0  0  0  0  0
    2.1640   21.2146  -23.5646 C   0  0  0  0  0  0  0  0  0  0  0  0
    2.8606   20.6824  -22.4934 C   0  0  0  0  0  0  0  0  0  0  0  0
    2.2836   20.4085  -21.2763 C   0  0  0  0  0  0  0  0  0  0  0  0
    0.9323   20.6988  -21.1696 C   0  0  0  0  0  0  0  0  0  0  0  0
    0.2092   21.2270  -22.2109 C   0  0  0  0  0  0  0  0  0  0  0  0
    3.1097   19.8489  -20.1971 C   0  0  0  0  0  0  0  0  0  0  0  0
    4.3145   19.0967  -20.7320 C   0  0  0  0  0  0  0  0  0  0  0  0
    4.1680   17.6013  -20.5891 C   0  0  0  0  0  0  0  0  0  0  0  0
    4.1558   17.2441  -19.2052 N   0  0  0  0  0  0  0  0  0  0  0  0
    3.3571   18.1860  -18.4225 C   0  0  0  0  0  0  0  0  0  0  0  0
    2.3600   18.9255  -19.2907 C   0  0  0  0  0  0  0  0  0  0  0  0
    5.4723   17.2354  -18.6057 C   0  0  0  0  0  0  0  0  0  0  0  0
    5.4907   18.1540  -17.4065 C   0  0  0  0  0  0  0  0  0  0  0  0
    5.9800   15.8814  -18.2484 C   0  0  0  0  0  0  0  0  0  0  0  0
   -5.4912   22.9128  -26.6432 O   0  0  0  0  0  0  0  0  0  0  0  0
   -9.1795   27.1999  -20.3949 C   0  0  0  0  0  0  0  0  0  0  0  0
   -8.5188   26.2925  -21.3855 N   0  0  0  0  0  0  0  0  0  0  0  0
   -8.2699   24.9948  -20.9946 C   0  0  0  0  0  0  0  0  0  0  0  0
   -8.6552   24.7207  -19.7737 O   0  0  0  0  0  0  0  0  0  0  0  0
   -7.6743   23.9332  -21.6927 N   0  0  0  0  0  0  0  0  0  0  0  0
   -7.4955   22.6722  -21.1512 C   0  0  0  0  0  0  0  0  0  0  0  0
   -6.8987   21.8697  -22.0764 C   0  0  0  0  0  0  0  0  0  0  0  0
   -6.6958   22.6194  -23.2116 C   0  0  0  0  0  0  0  0  0  0  0  0
   -6.1406   22.3115  -24.4311 C   0  0  0  0  0  0  0  0  0  0  0  0
   -6.0474   23.2507  -25.4352 C   0  0  0  0  0  0  0  0  0  0  0  0
   -6.5321   24.5096  -25.1688 C   0  0  0  0  0  0  0  0  0  0  0  0
   -7.0911   24.8350  -23.9533 C   0  0  0  0  0  0  0  0  0  0  0  0
   -7.1915   23.9069  -22.9404 C   0  0  0  0  0  0  0  0  0  0  0  0
   -8.3182   26.7507  -22.2741 H   0  0  0  0  0  0  0  0  0  0  0  0
   -6.4497   25.4671  -26.1631 O   0  0  0  0  0  0  0  0  0  0  0  0
   -5.3785   26.3943  -26.2311 C   0  0  0  0  0  0  0  0  0  0  0  0
 27 28  1  0  0  0
 28 29  1  0  0  0
 29 30  2  0  0  0
 29 31  1  0  0  0
 31 32  1  0  0  0
 32 33  2  0  0  0
 33 34  1  0  0  0
 34 35  2  0  0  0
 35 36  1  0  0  0
 36 26  1  0  0  0
 26  1  1  0  0  0
  1  2  2  0  0  0
  2  3  1  0  0  0
  3  4  2  0  0  0
  4  5  1  0  0  0
  5  7  1  0  0  0
  7  8  1  0  0  0
  8  9  2  0  0  0
  8 11  1  0  0  0
 11 12  2  0  0  0
 12 13  1  0  0  0
 13 14  2  0  0  0
 14 15  1  0  0  0
 15 16  2  0  0  0
 14 17  1  0  0  0
 17 18  1  0  0  0
 18 19  1  0  0  0
 19 20  1  0  0  0
 20 21  1  0  0  0
 21 22  1  0  0  0
 20 23  1  0  0  0
 23 24  1  0  0  0
 23 25  1  0  0  0
  5  6  2  0  0  0
 36 37  2  0  0  0
 37 41  1  0  0  0
 41 42  1  0  0  0
 37 38  1  0  0  0
 38 39  2  0  0  0
 39 31  1  0  0  0
 39 34  1  0  0  0
  6  1  1  0  0  0
 16 11  1  0  0  0
 22 17  1  0  0  0
 28 40  1  0  0  0
  7 10  1  0  0  0
M  END
> <minimizedAffinity>
-8.48292

> <CNNscore>
0.3278762102

> <CNNaffinity>
6.8281507492

> <CNN_VS>
2.2387881279

> <CNNaffinity_variance>
0.1201785356

$$$$
[H]c1nc(N([H])C(=O)c2c([H])c([H])c(C3([H])C([H])([H])C([H])([H])N(C([H])(C([H])([H])[H])C([H])([H])[H])C([H])([H])C3([H])[H])c([H])c2[H])c([H])c(Oc2c(OC([H])([H])[H])c([H])c3c(c2[H])c([H])c([H])n3C(=O)N([H])C([H])([H])[H])c1[H]


 42 46  0  0  0  0  0  0  0  0999 V2000
   -4.1291   23.7117  -28.1554 C   0  0  0  0  0  0  0  0  0  0  0  0
   -4.3388   24.7140  -29.0787 C   0  0  0  0  0  0  0  0  0  0  0  0
   -5.4242   25.5803  -28.9668 C   0  0  0  0  0  0  0  0  0  0  0  0
   -6.2723   25.4248  -27.9369 N   0  0  0  0  0  0  0  0  0  0  0  0
   -6.0937   24.4526  -27.0156 C   0  0  0  0  0  0  0  0  0  0  0  0
   -5.0323   23.5807  -27.0980 C   0  0  0  0  0  0  0  0  0  0  0  0
   -6.9955   24.2886  -25.9336 N   0  0  0  0  0  0  0  0  0  0  0  0
   -6.5700   24.6912  -24.6338 C   0  0  0  0  0  0  0  0  0  0  0  0
   -5.4410   25.1836  -24.4375 O   0  0  0  0  0  0  0  0  0  0  0  0
   -7.9401   23.8770  -26.1016 H   0  0  0  0  0  0  0  0  0  0  0  0
   -7.4640   24.5373  -23.4660 C   0  0  0  0  0  0  0  0  0  0  0  0
   -8.5757   25.3313  -23.2857 C   0  0  0  0  0  0  0  0  0  0  0  0
   -9.3681   25.1458  -22.1661 C   0  0  0  0  0  0  0  0  0  0  0  0
   -9.1090   24.1991  -21.2039 C   0  0  0  0  0  0  0  0  0  0  0  0
   -7.9843   23.4165  -21.4140 C   0  0  0  0  0  0  0  0  0  0  0  0
   -7.1751   23.5722  -22.5128 C   0  0  0  0  0  0  0  0  0  0  0  0
  -10.0145   24.0754  -20.0528 C   0  0  0  0  0  0  0  0  0  0  0  0
   -9.5336   23.0355  -19.0574 C   0  0  0  0  0  0  0  0  0  0  0  0
  -10.3675   21.7779  -19.0924 C   0  0  0  0  0  0  0  0  0  0  0  0
  -11.6943   22.0616  -18.6434 N   0  0  0  0  0  0  0  0  0  0  0  0
  -12.1748   23.3332  -19.1820 C   0  0  0  0  0  0  0  0  0  0  0  0
  -11.4184   23.7286  -20.4336 C   0  0  0  0  0  0  0  0  0  0  0  0
  -11.8004   22.1668  -17.2046 C   0  0  0  0  0  0  0  0  0  0  0  0
  -12.2966   23.5439  -16.8307 C   0  0  0  0  0  0  0  0  0  0  0  0
  -12.6327   21.1086  -16.5670 C   0  0  0  0  0  0  0  0  0  0  0  0
   -3.0650   22.8320  -28.2299 O   0  0  0  0  0  0  0  0  0  0  0  0
    3.2774   21.0070  -22.9890 C   0  0  0  0  0  0  0  0  0  0  0  0
    2.0367   21.3041  -23.7723 N   0  0  0  0  0  0  0  0  0  0  0  0
    0.8351   21.2765  -23.0984 C   0  0  0  0  0  0  0  0  0  0  0  0
    0.9418   20.9856  -21.8264 O   0  0  0  0  0  0  0  0  0  0  0  0
   -0.4704   21.5088  -23.5575 N   0  0  0  0  0  0  0  0  0  0  0  0
   -1.5865   21.4422  -22.7418 C   0  0  0  0  0  0  0  0  0  0  0  0
   -2.6964   21.7224  -23.4805 C   0  0  0  0  0  0  0  0  0  0  0  0
   -2.2888   21.9685  -24.7709 C   0  0  0  0  0  0  0  0  0  0  0  0
   -2.9858   22.2975  -25.9094 C   0  0  0  0  0  0  0  0  0  0  0  0
   -2.3427   22.5012  -27.1112 C   0  0  0  0  0  0  0  0  0  0  0  0
   -0.9748   22.3622  -27.1264 C   0  0  0  0  0  0  0  0  0  0  0  0
   -0.2613   22.0332  -25.9957 C   0  0  0  0  0  0  0  0  0  0  0  0
   -0.8901   21.8269  -24.7876 C   0  0  0  0  0  0  0  0  0  0  0  0
    2.2234   21.5020  -24.7550 H   0  0  0  0  0  0  0  0  0  0  0  0
   -0.3093   22.5636  -28.3218 O   0  0  0  0  0  0  0  0  0  0  0  0
   -0.0635   23.8610  -28.8395 C   0  0  0  0  0  0  0  0  0  0  0  0
 27 28  1  0  0  0
 28 29  1  0  0  0
 29 30  2  0  0  0
 29 31  1  0  0  0
 31 32  1  0  0  0
 32 33  2  0  0  0
 33 34  1  0  0  0
 34 35  2  0  0  0
 35 36  1  0  0  0
 36 26  1  0  0  0
 26  1  1  0  0  0
  1  2  2  0  0  0
  2  3  1  0  0  0
  3  4  2  0  0  0
  4  5  1  0  0  0
  5  7  1  0  0  0
  7  8  1  0  0  0
  8  9  2  0  0  0
  8 11  1  0  0  0
 11 12  2  0  0  0
 12 13  1  0  0  0
 13 14  2  0  0  0
 14 15  1  0  0  0
 15 16  2  0  0  0
 14 17  1  0  0  0
 17 18  1  0  0  0
 18 19  1  0  0  0
 19 20  1  0  0  0
 20 21  1  0  0  0
 21 22  1  0  0  0
 20 23  1  0  0  0
 23 24  1  0  0  0
 23 25  1  0  0  0
  5  6  2  0  0  0
 36 37  2  0  0  0
 37 41  1  0  0  0
 41 42  1  0  0  0
 37 38  1  0  0  0
 38 39  2  0  0  0
 39 31  1  0  0  0
 39 34  1  0  0  0
  6  1  1  0  0  0
 16 11  1  0  0  0
 22 17  1  0  0  0
 28 40  1  0  0  0
  7 10  1  0  0  0
M  END
> <minimizedAffinity>
-9.76005

> <CNNscore>
0.3245133162

> <CNNaffinity>
6.9710044861

> <CNN_VS>
2.2621836662

> <CNNaffinity_variance>
0.0707522556

$$$$
[H]c1nc(N([H])C(=O)c2c([H])c([H])c(C3([H])C([H])([H])C([H])([H])N(C([H])(C([H])([H])[H])C([H])([H])[H])C([H])([H])C3([H])[H])c([H])c2[H])c([H])c(Oc2c(OC([H])([H])[H])c([H])c3c(c2[H])c([H])c([H])n3C(=O)N([H])C([H])([H])[H])c1[H]


 42 46  0  0  0  0  0  0  0  0999 V2000
   -1.5251   22.7717  -20.1082 C   0  0  0  0  0  0  0  0  0  0  0  0
   -0.3904   22.4586  -19.3902 C   0  0  0  0  0  0  0  0  0  0  0  0
   -0.3725   21.3824  -18.5056 C   0  0  0  0  0  0  0  0  0  0  0  0
   -1.4865   20.6461  -18.3601 N   0  0  0  0  0  0  0  0  0  0  0  0
   -2.6139   20.9274  -19.0497 C   0  0  0  0  0  0  0  0  0  0  0  0
   -2.6644   21.9834  -19.9305 C   0  0  0  0  0  0  0  0  0  0  0  0
   -3.7895   20.1510  -18.8878 N   0  0  0  0  0  0  0  0  0  0  0  0
   -4.7221   20.5407  -17.8824 C   0  0  0  0  0  0  0  0  0  0  0  0
   -4.5285   21.5397  -17.1610 O   0  0  0  0  0  0  0  0  0  0  0  0
   -3.9489   19.3160  -19.4939 H   0  0  0  0  0  0  0  0  0  0  0  0
   -5.9619   19.7653  -17.6622 C   0  0  0  0  0  0  0  0  0  0  0  0
   -7.1769   20.1670  -18.1734 C   0  0  0  0  0  0  0  0  0  0  0  0
   -8.3043   19.4038  -17.9238 C   0  0  0  0  0  0  0  0  0  0  0  0
   -8.2859   18.2464  -17.1825 C   0  0  0  0  0  0  0  0  0  0  0  0
   -7.0492   17.8691  -16.6825 C   0  0  0  0  0  0  0  0  0  0  0  0
   -5.9097   18.6014  -16.9097 C   0  0  0  0  0  0  0  0  0  0  0  0
   -9.5366   17.5020  -16.9780 C   0  0  0  0  0  0  0  0  0  0  0  0
  -10.2992   17.9909  -15.7603 C   0  0  0  0  0  0  0  0  0  0  0  0
  -10.2275   17.0179  -14.6087 C   0  0  0  0  0  0  0  0  0  0  0  0
  -10.9099   15.8094  -14.9501 N   0  0  0  0  0  0  0  0  0  0  0  0
  -10.6250   15.4119  -16.3281 C   0  0  0  0  0  0  0  0  0  0  0  0
   -9.3349   16.0277  -16.8293 C   0  0  0  0  0  0  0  0  0  0  0  0
  -12.3489   15.9180  -14.8505 C   0  0  0  0  0  0  0  0  0  0  0  0
  -12.9951   15.1790  -15.9988 C   0  0  0  0  0  0  0  0  0  0  0  0
  -12.9136   15.4743  -13.5454 C   0  0  0  0  0  0  0  0  0  0  0  0
   -1.5843   23.8302  -20.9959 O   0  0  0  0  0  0  0  0  0  0  0  0
   -5.7309   23.8861  -28.3326 C   0  0  0  0  0  0  0  0  0  0  0  0
   -4.8610   23.7775  -27.1191 N   0  0  0  0  0  0  0  0  0  0  0  0
   -3.6527   23.1295  -27.2564 C   0  0  0  0  0  0  0  0  0  0  0  0
   -3.4200   22.6821  -28.4646 O   0  0  0  0  0  0  0  0  0  0  0  0
   -2.6441   22.8769  -26.3140 N   0  0  0  0  0  0  0  0  0  0  0  0
   -1.4730   22.2038  -26.6155 C   0  0  0  0  0  0  0  0  0  0  0  0
   -0.7017   22.1264  -25.4951 C   0  0  0  0  0  0  0  0  0  0  0  0
   -1.3813   22.7514  -24.4755 C   0  0  0  0  0  0  0  0  0  0  0  0
   -1.0672   22.9626  -23.1538 C   0  0  0  0  0  0  0  0  0  0  0  0
   -1.9269   23.6316  -22.3096 C   0  0  0  0  0  0  0  0  0  0  0  0
   -3.1126   24.0799  -22.8423 C   0  0  0  0  0  0  0  0  0  0  0  0
   -3.4430   23.8770  -24.1634 C   0  0  0  0  0  0  0  0  0  0  0  0
   -2.5939   23.2106  -25.0192 C   0  0  0  0  0  0  0  0  0  0  0  0
   -5.2727   24.2113  -26.2932 H   0  0  0  0  0  0  0  0  0  0  0  0
   -3.9894   24.7550  -22.0129 O   0  0  0  0  0  0  0  0  0  0  0  0
   -5.3911   24.7465  -22.2293 C   0  0  0  0  0  0  0  0  0  0  0  0
 27 28  1  0  0  0
 28 29  1  0  0  0
 29 30  2  0  0  0
 29 31  1  0  0  0
 31 32  1  0  0  0
 32 33  2  0  0  0
 33 34  1  0  0  0
 34 35  2  0  0  0
 35 36  1  0  0  0
 36 26  1  0  0  0
 26  1  1  0  0  0
  1  2  2  0  0  0
  2  3  1  0  0  0
  3  4  2  0  0  0
  4  5  1  0  0  0
  5  7  1  0  0  0
  7  8  1  0  0  0
  8  9  2  0  0  0
  8 11  1  0  0  0
 11 12  2  0  0  0
 12 13  1  0  0  0
 13 14  2  0  0  0
 14 15  1  0  0  0
 15 16  2  0  0  0
 14 17  1  0  0  0
 17 18  1  0  0  0
 18 19  1  0  0  0
 19 20  1  0  0  0
 20 21  1  0  0  0
 21 22  1  0  0  0
 20 23  1  0  0  0
 23 24  1  0  0  0
 23 25  1  0  0  0
  5  6  2  0  0  0
 36 37  2  0  0  0
 37 41  1  0  0  0
 41 42  1  0  0  0
 37 38  1  0  0  0
 38 39  2  0  0  0
 39 31  1  0  0  0
 39 34  1  0  0  0
  6  1  1  0  0  0
 16 11  1  0  0  0
 22 17  1  0  0  0
 28 40  1  0  0  0
  7 10  1  0  0  0
M  END
> <minimizedAffinity>
-7.49125

> <CNNscore>
0.1452923566

> <CNNaffinity>
5.7714486122

> <CNN_VS>
0.8385473490

> <CNNaffinity_variance>
0.1209531203

$$$$
[H]c1nc(N([H])C(=O)c2c([H])c([H])c(C3([H])C([H])([H])C([H])([H])N(C([H])(C([H])([H])[H])C([H])([H])[H])C([H])([H])C3([H])[H])c([H])c2[H])c([H])c(Oc2c(OC([H])([H])[H])c([H])c3c(c2[H])c([H])c([H])n3C(=O)N([H])C([H])([H])[H])c1[H]


 42 46  0  0  0  0  0  0  0  0999 V2000
   -0.5928   21.6304  -23.8531 C   0  0  0  0  0  0  0  0  0  0  0  0
    0.5337   21.3731  -23.1009 C   0  0  0  0  0  0  0  0  0  0  0  0
    0.4426   21.1050  -21.7367 C   0  0  0  0  0  0  0  0  0  0  0  0
   -0.7695   21.1002  -21.1581 N   0  0  0  0  0  0  0  0  0  0  0  0
   -1.8920   21.3482  -21.8681 C   0  0  0  0  0  0  0  0  0  0  0  0
   -1.8360   21.6169  -23.2166 C   0  0  0  0  0  0  0  0  0  0  0  0
   -3.1689   21.3483  -21.2513 N   0  0  0  0  0  0  0  0  0  0  0  0
   -3.7936   22.6037  -20.9940 C   0  0  0  0  0  0  0  0  0  0  0  0
   -3.2490   23.6822  -21.3038 O   0  0  0  0  0  0  0  0  0  0  0  0
   -3.6224   20.4438  -20.9941 H   0  0  0  0  0  0  0  0  0  0  0  0
   -5.1215   22.6669  -20.3462 C   0  0  0  0  0  0  0  0  0  0  0  0
   -5.3096   23.2654  -19.1194 C   0  0  0  0  0  0  0  0  0  0  0  0
   -6.5755   23.2832  -18.5597 C   0  0  0  0  0  0  0  0  0  0  0  0
   -7.6785   22.7297  -19.1648 C   0  0  0  0  0  0  0  0  0  0  0  0
   -7.4566   22.1357  -20.3976 C   0  0  0  0  0  0  0  0  0  0  0  0
   -6.2148   22.0990  -20.9832 C   0  0  0  0  0  0  0  0  0  0  0  0
   -8.9830   22.8050  -18.4920 C   0  0  0  0  0  0  0  0  0  0  0  0
   -9.1348   21.7411  -17.4202 C   0  0  0  0  0  0  0  0  0  0  0  0
  -10.0790   20.6389  -17.8344 C   0  0  0  0  0  0  0  0  0  0  0  0
  -11.4050   21.1569  -17.9616 N   0  0  0  0  0  0  0  0  0  0  0  0
  -11.4013   22.4675  -18.6097 C   0  0  0  0  0  0  0  0  0  0  0  0
  -10.1436   22.6806  -19.4268 C   0  0  0  0  0  0  0  0  0  0  0  0
  -12.0725   21.3367  -16.6909 C   0  0  0  0  0  0  0  0  0  0  0  0
  -12.3992   22.7980  -16.4906 C   0  0  0  0  0  0  0  0  0  0  0  0
  -13.2828   20.4889  -16.5030 C   0  0  0  0  0  0  0  0  0  0  0  0
   -0.5458   21.9003  -25.2084 O   0  0  0  0  0  0  0  0  0  0  0  0
   -5.6672   25.0424  -31.1178 C   0  0  0  0  0  0  0  0  0  0  0  0
   -4.8769   24.5581  -29.9422 N   0  0  0  0  0  0  0  0  0  0  0  0
   -5.3760   24.8230  -28.6854 C   0  0  0  0  0  0  0  0  0  0  0  0
   -6.5072   25.4821  -28.6870 O   0  0  0  0  0  0  0  0  0  0  0  0
   -4.8667   24.5003  -27.4183 N   0  0  0  0  0  0  0  0  0  0  0  0
   -5.4980   24.8428  -26.2352 C   0  0  0  0  0  0  0  0  0  0  0  0
   -4.7592   24.3844  -25.1863 C   0  0  0  0  0  0  0  0  0  0  0  0
   -3.6537   23.7475  -25.7001 C   0  0  0  0  0  0  0  0  0  0  0  0
   -2.5956   23.1096  -25.0969 C   0  0  0  0  0  0  0  0  0  0  0  0
   -1.5873   22.5332  -25.8387 C   0  0  0  0  0  0  0  0  0  0  0  0
   -1.6814   22.6217  -27.2076 C   0  0  0  0  0  0  0  0  0  0  0  0
   -2.7338   23.2568  -27.8281 C   0  0  0  0  0  0  0  0  0  0  0  0
   -3.7490   23.8370  -27.0999 C   0  0  0  0  0  0  0  0  0  0  0  0
   -4.0245   24.0667  -30.2100 H   0  0  0  0  0  0  0  0  0  0  0  0
   -0.6809   22.0488  -27.9713 O   0  0  0  0  0  0  0  0  0  0  0  0
    0.6639   22.4955  -27.9112 C   0  0  0  0  0  0  0  0  0  0  0  0
 27 28  1  0  0  0
 28 29  1  0  0  0
 29 30  2  0  0  0
 29 31  1  0  0  0
 31 32  1  0  0  0
 32 33  2  0  0  0
 33 34  1  0  0  0
 34 35  2  0  0  0
 35 36  1  0  0  0
 36 26  1  0  0  0
 26  1  1  0  0  0
  1  2  2  0  0  0
  2  3  1  0  0  0
  3  4  2  0  0  0
  4  5  1  0  0  0
  5  7  1  0  0  0
  7  8  1  0  0  0
  8  9  2  0  0  0
  8 11  1  0  0  0
 11 12  2  0  0  0
 12 13  1  0  0  0
 13 14  2  0  0  0
 14 15  1  0  0  0
 15 16  2  0  0  0
 14 17  1  0  0  0
 17 18  1  0  0  0
 18 19  1  0  0  0
 19 20  1  0  0  0
 20 21  1  0  0  0
 21 22  1  0  0  0
 20 23  1  0  0  0
 23 24  1  0  0  0
 23 25  1  0  0  0
  5  6  2  0  0  0
 36 37  2  0  0  0
 37 41  1  0  0  0
 41 42  1  0  0  0
 37 38  1  0  0  0
 38 39  2  0  0  0
 39 31  1  0  0  0
 39 34  1  0  0  0
  6  1  1  0  0  0
 16 11  1  0  0  0
 22 17  1  0  0  0
 28 40  1  0  0  0
  7 10  1  0  0  0
M  END
> <minimizedAffinity>
-8.60722

> <CNNscore>
0.1392430663

> <CNNaffinity>
6.7954854965

> <CNN_VS>
0.9462242126

> <CNNaffinity_variance>
0.1438864768

$$$$
[H]c1nc(N([H])C(=O)c2c([H])c([H])c(C3([H])C([H])([H])C([H])([H])N(C([H])(C([H])([H])[H])C([H])([H])[H])C([H])([H])C3([H])[H])c([H])c2[H])c([H])c(Oc2c(OC([H])([H])[H])c([H])c3c(c2[H])c([H])c([H])n3C(=O)N([H])C([H])([H])[H])c1[H]


 42 46  0  0  0  0  0  0  0  0999 V2000
    1.6070   20.8088  -21.9967 C   0  0  0  0  0  0  0  0  0  0  0  0
    2.0978   21.0260  -23.2667 C   0  0  0  0  0  0  0  0  0  0  0  0
    1.2797   21.5221  -24.2794 C   0  0  0  0  0  0  0  0  0  0  0  0
   -0.0066   21.7890  -23.9994 N   0  0  0  0  0  0  0  0  0  0  0  0
   -0.5171   21.5871  -22.7648 C   0  0  0  0  0  0  0  0  0  0  0  0
    0.2642   21.0979  -21.7431 C   0  0  0  0  0  0  0  0  0  0  0  0
   -1.8775   21.8644  -22.4758 N   0  0  0  0  0  0  0  0  0  0  0  0
   -2.2285   23.1916  -22.0913 C   0  0  0  0  0  0  0  0  0  0  0  0
   -1.3755   24.0984  -22.0138 O   0  0  0  0  0  0  0  0  0  0  0  0
   -2.5890   21.1033  -22.5426 H   0  0  0  0  0  0  0  0  0  0  0  0
   -3.6298   23.5385  -21.7706 C   0  0  0  0  0  0  0  0  0  0  0  0
   -4.3386   22.8848  -20.7863 C   0  0  0  0  0  0  0  0  0  0  0  0
   -5.6513   23.2481  -20.5399 C   0  0  0  0  0  0  0  0  0  0  0  0
   -6.3042   24.2410  -21.2306 C   0  0  0  0  0  0  0  0  0  0  0  0
   -5.5644   24.8795  -22.2139 C   0  0  0  0  0  0  0  0  0  0  0  0
   -4.2602   24.5457  -22.4859 C   0  0  0  0  0  0  0  0  0  0  0  0
   -7.6986   24.5578  -20.8908 C   0  0  0  0  0  0  0  0  0  0  0  0
   -8.6549   24.2025  -22.0145 C   0  0  0  0  0  0  0  0  0  0  0  0
   -9.1766   25.4234  -22.7325 C   0  0  0  0  0  0  0  0  0  0  0  0
   -9.9931   26.1951  -21.8489 N   0  0  0  0  0  0  0  0  0  0  0  0
   -9.4056   26.2661  -20.5119 C   0  0  0  0  0  0  0  0  0  0  0  0
   -7.9153   25.9962  -20.5440 C   0  0  0  0  0  0  0  0  0  0  0  0
  -11.3223   25.6507  -21.6775 C   0  0  0  0  0  0  0  0  0  0  0  0
  -11.8739   26.0696  -20.3349 C   0  0  0  0  0  0  0  0  0  0  0  0
  -12.2739   25.9862  -22.7734 C   0  0  0  0  0  0  0  0  0  0  0  0
    2.3850   20.3185  -20.9641 O   0  0  0  0  0  0  0  0  0  0  0  0
    0.7795   21.9808  -12.8596 C   0  0  0  0  0  0  0  0  0  0  0  0
    1.1680   21.8432  -14.2988 N   0  0  0  0  0  0  0  0  0  0  0  0
    2.0147   22.7947  -14.8246 C   0  0  0  0  0  0  0  0  0  0  0  0
    2.3767   23.7189  -13.9709 O   0  0  0  0  0  0  0  0  0  0  0  0
    2.5435   22.9264  -16.1177 N   0  0  0  0  0  0  0  0  0  0  0  0
    3.3928   23.9534  -16.4910 C   0  0  0  0  0  0  0  0  0  0  0  0
    3.7324   23.7976  -17.8012 C   0  0  0  0  0  0  0  0  0  0  0  0
    3.0989   22.6688  -18.2661 C   0  0  0  0  0  0  0  0  0  0  0  0
    3.0940   22.0570  -19.4974 C   0  0  0  0  0  0  0  0  0  0  0  0
    2.3675   20.9083  -19.7254 C   0  0  0  0  0  0  0  0  0  0  0  0
    1.6469   20.3978  -18.6715 C   0  0  0  0  0  0  0  0  0  0  0  0
    1.6405   20.9976  -17.4321 C   0  0  0  0  0  0  0  0  0  0  0  0
    2.3619   22.1456  -17.1891 C   0  0  0  0  0  0  0  0  0  0  0  0
    0.7484   21.0302  -14.7491 H   0  0  0  0  0  0  0  0  0  0  0  0
    0.9119   19.2448  -18.8782 O   0  0  0  0  0  0  0  0  0  0  0  0
    0.3478   18.5070  -17.8062 C   0  0  0  0  0  0  0  0  0  0  0  0
 27 28  1  0  0  0
 28 29  1  0  0  0
 29 30  2  0  0  0
 29 31  1  0  0  0
 31 32  1  0  0  0
 32 33  2  0  0  0
 33 34  1  0  0  0
 34 35  2  0  0  0
 35 36  1  0  0  0
 36 26  1  0  0  0
 26  1  1  0  0  0
  1  2  2  0  0  0
  2  3  1  0  0  0
  3  4  2  0  0  0
  4  5  1  0  0  0
  5  7  1  0  0  0
  7  8  1  0  0  0
  8  9  2  0  0  0
  8 11  1  0  0  0
 11 12  2  0  0  0
 12 13  1  0  0  0
 13 14  2  0  0  0
 14 15  1  0  0  0
 15 16  2  0  0  0
 14 17  1  0  0  0
 17 18  1  0  0  0
 18 19  1  0  0  0
 19 20  1  0  0  0
 20 21  1  0  0  0
 21 22  1  0  0  0
 20 23  1  0  0  0
 23 24  1  0  0  0
 23 25  1  0  0  0
  5  6  2  0  0  0
 36 37  2  0  0  0
 37 41  1  0  0  0
 41 42  1  0  0  0
 37 38  1  0  0  0
 38 39  2  0  0  0
 39 31  1  0  0  0
 39 34  1  0  0  0
  6  1  1  0  0  0
 16 11  1  0  0  0
 22 17  1  0  0  0
 28 40  1  0  0  0
  7 10  1  0  0  0
M  END
> <minimizedAffinity>
-7.77671

> <CNNscore>
0.1306524873

> <CNNaffinity>
5.8032617569

> <CNN_VS>
0.7582105994

> <CNNaffinity_variance>
0.2935443819

$$$$
[H]c1nc(N([H])C(=O)c2c([H])c([H])c(C3([H])C([H])([H])C([H])([H])N(C([H])(C([H])([H])[H])C([H])([H])[H])C([H])([H])C3([H])[H])c([H])c2[H])c([H])c(Oc2c(OC([H])([H])[H])c([H])c3c(c2[H])c([H])c([H])n3C(=O)N([H])C([H])([H])[H])c1[H]


 42 46  0  0  0  0  0  0  0  0999 V2000
   -3.3838   21.6231  -23.6284 C   0  0  0  0  0  0  0  0  0  0  0  0
   -2.7408   22.1439  -24.7313 C   0  0  0  0  0  0  0  0  0  0  0  0
   -1.3881   22.4746  -24.6864 C   0  0  0  0  0  0  0  0  0  0  0  0
   -0.7117   22.2771  -23.5429 N   0  0  0  0  0  0  0  0  0  0  0  0
   -1.3134   21.7681  -22.4453 C   0  0  0  0  0  0  0  0  0  0  0  0
   -2.6477   21.4319  -22.4569 C   0  0  0  0  0  0  0  0  0  0  0  0
   -0.5963   21.5675  -21.2384 N   0  0  0  0  0  0  0  0  0  0  0  0
   -0.5759   22.6247  -20.2822 C   0  0  0  0  0  0  0  0  0  0  0  0
   -1.1739   23.7008  -20.4825 O   0  0  0  0  0  0  0  0  0  0  0  0
   -0.0977   20.6652  -21.0735 H   0  0  0  0  0  0  0  0  0  0  0  0
    0.1614   22.4762  -19.0089 C   0  0  0  0  0  0  0  0  0  0  0  0
    1.4799   22.8547  -18.8783 C   0  0  0  0  0  0  0  0  0  0  0  0
    2.1189   22.6806  -17.6629 C   0  0  0  0  0  0  0  0  0  0  0  0
    1.5067   22.1427  -16.5560 C   0  0  0  0  0  0  0  0  0  0  0  0
    0.1808   21.7723  -16.7195 C   0  0  0  0  0  0  0  0  0  0  0  0
   -0.4852   21.9301  -17.9102 C   0  0  0  0  0  0  0  0  0  0  0  0
    2.2691   22.0040  -15.3071 C   0  0  0  0  0  0  0  0  0  0  0  0
    1.4212   22.3034  -14.0845 C   0  0  0  0  0  0  0  0  0  0  0  0
    1.7707   23.6294  -13.4537 C   0  0  0  0  0  0  0  0  0  0  0  0
    3.0958   23.5799  -12.9204 N   0  0  0  0  0  0  0  0  0  0  0  0
    4.0057   22.8818  -13.8275 C   0  0  0  0  0  0  0  0  0  0  0  0
    3.4806   22.8787  -15.2485 C   0  0  0  0  0  0  0  0  0  0  0  0
    3.1764   22.8852  -11.6541 C   0  0  0  0  0  0  0  0  0  0  0  0
    4.3222   21.9011  -11.6863 C   0  0  0  0  0  0  0  0  0  0  0  0
    3.2723   23.7770  -10.4647 C   0  0  0  0  0  0  0  0  0  0  0  0
   -4.7237   21.2817  -23.6315 O   0  0  0  0  0  0  0  0  0  0  0  0
  -10.7630   26.8662  -21.7973 C   0  0  0  0  0  0  0  0  0  0  0  0
   -9.6892   25.8327  -21.9392 N   0  0  0  0  0  0  0  0  0  0  0  0
   -9.3076   25.1496  -20.8049 C   0  0  0  0  0  0  0  0  0  0  0  0
   -9.9534   25.5060  -19.7233 O   0  0  0  0  0  0  0  0  0  0  0  0
   -8.3456   24.1432  -20.6301 N   0  0  0  0  0  0  0  0  0  0  0  0
   -8.0787   23.5502  -19.4084 C   0  0  0  0  0  0  0  0  0  0  0  0
   -7.1039   22.6125  -19.5709 C   0  0  0  0  0  0  0  0  0  0  0  0
   -6.7470   22.6061  -20.8993 C   0  0  0  0  0  0  0  0  0  0  0  0
   -5.8272   21.8640  -21.6018 C   0  0  0  0  0  0  0  0  0  0  0  0
   -5.6471   22.0398  -22.9567 C   0  0  0  0  0  0  0  0  0  0  0  0
   -6.4244   22.9881  -23.5788 C   0  0  0  0  0  0  0  0  0  0  0  0
   -7.3501   23.7401  -22.8907 C   0  0  0  0  0  0  0  0  0  0  0  0
   -7.5416   23.5753  -21.5365 C   0  0  0  0  0  0  0  0  0  0  0  0
   -9.3453   25.7437  -22.8950 H   0  0  0  0  0  0  0  0  0  0  0  0
   -6.2607   23.1799  -24.9385 O   0  0  0  0  0  0  0  0  0  0  0  0
   -5.7215   24.3782  -25.4722 C   0  0  0  0  0  0  0  0  0  0  0  0
 27 28  1  0  0  0
 28 29  1  0  0  0
 29 30  2  0  0  0
 29 31  1  0  0  0
 31 32  1  0  0  0
 32 33  2  0  0  0
 33 34  1  0  0  0
 34 35  2  0  0  0
 35 36  1  0  0  0
 36 26  1  0  0  0
 26  1  1  0  0  0
  1  2  2  0  0  0
  2  3  1  0  0  0
  3  4  2  0  0  0
  4  5  1  0  0  0
  5  7  1  0  0  0
  7  8  1  0  0  0
  8  9  2  0  0  0
  8 11  1  0  0  0
 11 12  2  0  0  0
 12 13  1  0  0  0
 13 14  2  0  0  0
 14 15  1  0  0  0
 15 16  2  0  0  0
 14 17  1  0  0  0
 17 18  1  0  0  0
 18 19  1  0  0  0
 19 20  1  0  0  0
 20 21  1  0  0  0
 21 22  1  0  0  0
 20 23  1  0  0  0
 23 24  1  0  0  0
 23 25  1  0  0  0
  5  6  2  0  0  0
 36 37  2  0  0  0
 37 41  1  0  0  0
 41 42  1  0  0  0
 37 38  1  0  0  0
 38 39  2  0  0  0
 39 31  1  0  0  0
 39 34  1  0  0  0
  6  1  1  0  0  0
 16 11  1  0  0  0
 22 17  1  0  0  0
 28 40  1  0  0  0
  7 10  1  0  0  0
M  END
> <minimizedAffinity>
-7.85162

> <CNNscore>
0.1255955994

> <CNNaffinity>
5.7156333923

> <CNN_VS>
0.7178583741

> <CNNaffinity_variance>
0.3491145372

$$$$
[H]c1nc(N([H])C(=O)c2c([H])c([H])c(C3([H])C([H])([H])C([H])([H])N(C([H])(C([H])([H])[H])C([H])([H])[H])C([H])([H])C3([H])[H])c([H])c2[H])c([H])c(Oc2c(OC([H])([H])[H])c([H])c3c(c2[H])c([H])c([H])n3C(=O)N([H])C([H])([H])[H])c1[H]


 42 46  0  0  0  0  0  0  0  0999 V2000
   -6.9617   23.7963  -20.4284 C   0  0  0  0  0  0  0  0  0  0  0  0
   -7.8012   22.7045  -20.3634 C   0  0  0  0  0  0  0  0  0  0  0  0
   -7.3040   21.4284  -20.1072 C   0  0  0  0  0  0  0  0  0  0  0  0
   -5.9826   21.2742  -19.9223 N   0  0  0  0  0  0  0  0  0  0  0  0
   -5.1343   22.3244  -19.9795 C   0  0  0  0  0  0  0  0  0  0  0  0
   -5.5934   23.5970  -20.2309 C   0  0  0  0  0  0  0  0  0  0  0  0
   -3.7391   22.1554  -19.7899 N   0  0  0  0  0  0  0  0  0  0  0  0
   -3.1578   22.6470  -18.5845 C   0  0  0  0  0  0  0  0  0  0  0  0
   -3.8448   23.2062  -17.7064 O   0  0  0  0  0  0  0  0  0  0  0  0
   -3.1672   21.6861  -20.5264 H   0  0  0  0  0  0  0  0  0  0  0  0
   -1.7071   22.5063  -18.3345 C   0  0  0  0  0  0  0  0  0  0  0  0
   -1.2098   21.6600  -17.3675 C   0  0  0  0  0  0  0  0  0  0  0  0
    0.1585   21.5799  -17.1737 C   0  0  0  0  0  0  0  0  0  0  0  0
    1.0697   22.3073  -17.9015 C   0  0  0  0  0  0  0  0  0  0  0  0
    0.5383   23.1490  -18.8664 C   0  0  0  0  0  0  0  0  0  0  0  0
   -0.8133   23.2543  -19.0864 C   0  0  0  0  0  0  0  0  0  0  0  0
    2.5044   22.1481  -17.6247 C   0  0  0  0  0  0  0  0  0  0  0  0
    2.9242   22.8677  -16.3560 C   0  0  0  0  0  0  0  0  0  0  0  0
    3.7242   24.1154  -16.6411 C   0  0  0  0  0  0  0  0  0  0  0  0
    4.9741   23.7654  -17.2395 N   0  0  0  0  0  0  0  0  0  0  0  0
    4.8081   22.7006  -18.2277 C   0  0  0  0  0  0  0  0  0  0  0  0
    3.3825   22.6299  -18.7352 C   0  0  0  0  0  0  0  0  0  0  0  0
    5.9489   23.2828  -16.2858 C   0  0  0  0  0  0  0  0  0  0  0  0
    6.4316   21.9130  -16.7014 C   0  0  0  0  0  0  0  0  0  0  0  0
    7.0956   24.2048  -16.0536 C   0  0  0  0  0  0  0  0  0  0  0  0
   -7.4145   25.0784  -20.6796 O   0  0  0  0  0  0  0  0  0  0  0  0
  -13.0928   26.1203  -26.8192 C   0  0  0  0  0  0  0  0  0  0  0  0
  -12.2266   25.9637  -25.6084 N   0  0  0  0  0  0  0  0  0  0  0  0
  -12.8334   26.0520  -24.3743 C   0  0  0  0  0  0  0  0  0  0  0  0
  -14.1236   26.2676  -24.4269 O   0  0  0  0  0  0  0  0  0  0  0  0
  -12.2903   25.9483  -23.0846 N   0  0  0  0  0  0  0  0  0  0  0  0
  -13.0454   26.0614  -21.9302 C   0  0  0  0  0  0  0  0  0  0  0  0
  -12.2318   25.9089  -20.8481 C   0  0  0  0  0  0  0  0  0  0  0  0
  -10.9542   25.6979  -21.3119 C   0  0  0  0  0  0  0  0  0  0  0  0
   -9.7621   25.4846  -20.6610 C   0  0  0  0  0  0  0  0  0  0  0  0
   -8.5884   25.2925  -21.3571 C   0  0  0  0  0  0  0  0  0  0  0  0
   -8.6568   25.3229  -22.7300 C   0  0  0  0  0  0  0  0  0  0  0  0
   -9.8419   25.5353  -23.3980 C   0  0  0  0  0  0  0  0  0  0  0  0
  -11.0230   25.7285  -22.7158 C   0  0  0  0  0  0  0  0  0  0  0  0
  -11.2462   25.8024  -25.8376 H   0  0  0  0  0  0  0  0  0  0  0  0
   -7.4907   25.1310  -23.4483 O   0  0  0  0  0  0  0  0  0  0  0  0
   -7.4964   24.8853  -24.8451 C   0  0  0  0  0  0  0  0  0  0  0  0
 27 28  1  0  0  0
 28 29  1  0  0  0
 29 30  2  0  0  0
 29 31  1  0  0  0
 31 32  1  0  0  0
 32 33  2  0  0  0
 33 34  1  0  0  0
 34 35  2  0  0  0
 35 36  1  0  0  0
 36 26  1  0  0  0
 26  1  1  0  0  0
  1  2  2  0  0  0
  2  3  1  0  0  0
  3  4  2  0  0  0
  4  5  1  0  0  0
  5  7  1  0  0  0
  7  8  1  0  0  0
  8  9  2  0  0  0
  8 11  1  0  0  0
 11 12  2  0  0  0
 12 13  1  0  0  0
 13 14  2  0  0  0
 14 15  1  0  0  0
 15 16  2  0  0  0
 14 17  1  0  0  0
 17 18  1  0  0  0
 18 19  1  0  0  0
 19 20  1  0  0  0
 20 21  1  0  0  0
 21 22  1  0  0  0
 20 23  1  0  0  0
 23 24  1  0  0  0
 23 25  1  0  0  0
  5  6  2  0  0  0
 36 37  2  0  0  0
 37 41  1  0  0  0
 41 42  1  0  0  0
 37 38  1  0  0  0
 38 39  2  0  0  0
 39 31  1  0  0  0
 39 34  1  0  0  0
  6  1  1  0  0  0
 16 11  1  0  0  0
 22 17  1  0  0  0
 28 40  1  0  0  0
  7 10  1  0  0  0
M  END
> <minimizedAffinity>
-7.98024

> <CNNscore>
0.1191485748

> <CNNaffinity>
5.3510451317

> <CNN_VS>
0.6375694275

> <CNNaffinity_variance>
0.1759258509

$$$$
[H]c1nc(N([H])[H])c(-c2nn(-c3c(Cl)c(OC([H])([H])[H])c([H])c(OC([H])([H])[H])c3Cl)c(=O)c([H])c2[H])nc1-c1c([H])nn(C([H])(C([H])([H])[H])C([H])([H])[H])c1[H]


 36 39  0  0  0  0  0  0  0  0999 V2000
   -5.7245   23.5978  -25.4470 N   0  0  0  0  0  0  0  0  0  0  0  0
   -4.4586   23.3214  -25.5391 N   0  0  0  0  0  0  0  0  0  0  0  0
   -3.7663   23.1972  -26.7193 C   0  0  0  0  0  0  0  0  0  0  0  0
   -4.4964   23.3844  -27.8430 C   0  0  0  0  0  0  0  0  0  0  0  0
   -5.8702   23.6856  -27.8095 C   0  0  0  0  0  0  0  0  0  0  0  0
   -6.4497   23.7839  -26.5731 C   0  0  0  0  0  0  0  0  0  0  0  0
   -7.6554   24.0466  -26.4723 O   0  0  0  0  0  0  0  0  0  0  0  0
   -2.3386   22.8760  -26.6150 C   0  0  0  0  0  0  0  0  0  0  0  0
   -1.8843   22.4399  -25.3873 N   0  0  0  0  0  0  0  0  0  0  0  0
   -0.6157   22.1168  -25.1642 C   0  0  0  0  0  0  0  0  0  0  0  0
    0.2489   22.2363  -26.2280 C   0  0  0  0  0  0  0  0  0  0  0  0
   -0.1596   22.6560  -27.4300 N   0  0  0  0  0  0  0  0  0  0  0  0
   -1.4834   22.9903  -27.6532 C   0  0  0  0  0  0  0  0  0  0  0  0
   -1.7941   23.4250  -28.9644 N   0  0  0  0  0  0  0  0  0  0  0  0
   -2.0735   22.7165  -29.6679 H   0  0  0  0  0  0  0  0  0  0  0  0
   -1.7451   24.4200  -29.2514 H   0  0  0  0  0  0  0  0  0  0  0  0
   -0.1953   21.6600  -23.8465 C   0  0  0  0  0  0  0  0  0  0  0  0
   -0.9820   21.3615  -22.7520 C   0  0  0  0  0  0  0  0  0  0  0  0
   -0.1476   20.9731  -21.7553 N   0  0  0  0  0  0  0  0  0  0  0  0
    1.1088   21.0099  -22.1556 N   0  0  0  0  0  0  0  0  0  0  0  0
    1.0996   21.4269  -23.4295 C   0  0  0  0  0  0  0  0  0  0  0  0
    2.3031   20.6618  -21.3744 C   0  0  0  0  0  0  0  0  0  0  0  0
    3.4431   20.3494  -22.2960 C   0  0  0  0  0  0  0  0  0  0  0  0
    2.0262   19.4350  -20.5347 C   0  0  0  0  0  0  0  0  0  0  0  0
   -7.2748   25.0448  -22.4388 C   0  0  0  0  0  0  0  0  0  0  0  0
   -7.6145   23.9121  -21.7175 C   0  0  0  0  0  0  0  0  0  0  0  0
   -7.3382   22.6577  -22.2113 C   0  0  0  0  0  0  0  0  0  0  0  0
   -6.7097   22.5953  -23.4541 C   0  0  0  0  0  0  0  0  0  0  0  0
   -6.3605   20.9935  -24.0815 Cl  0  0  0  0  0  0  0  0  0  0  0  0
   -6.3677   23.7146  -24.1797 C   0  0  0  0  0  0  0  0  0  0  0  0
   -6.6464   24.9735  -23.6816 C   0  0  0  0  0  0  0  0  0  0  0  0
   -6.2312   26.4195  -24.5758 Cl  0  0  0  0  0  0  0  0  0  0  0  0
   -8.3023   26.6478  -20.8643 C   0  0  0  0  0  0  0  0  0  0  0  0
   -7.5329   26.3271  -21.9819 O   0  0  0  0  0  0  0  0  0  0  0  0
   -7.6535   21.4937  -21.5353 O   0  0  0  0  0  0  0  0  0  0  0  0
   -8.3864   21.3871  -20.3570 C   0  0  0  0  0  0  0  0  0  0  0  0
 33 34  1  0  0  0
 34 25  1  0  0  0
 25 26  2  0  0  0
 26 27  1  0  0  0
 27 35  1  0  0  0
 35 36  1  0  0  0
 27 28  2  0  0  0
 28 29  1  0  0  0
 28 30  1  0  0  0
 30 31  2  0  0  0
 31 32  1  0  0  0
 30  1  1  0  0  0
  1  2  1  0  0  0
  2  3  2  0  0  0
  3  4  1  0  0  0
  4  5  2  0  0  0
  5  6  1  0  0  0
  6  7  2  0  0  0
  3  8  1  0  0  0
  8  9  2  0  0  0
  9 10  1  0  0  0
 10 11  2  0  0  0
 11 12  1  0  0  0
 12 13  2  0  0  0
 13 14  1  0  0  0
 10 17  1  0  0  0
 17 18  1  0  0  0
 18 19  2  0  0  0
 19 20  1  0  0  0
 20 21  1  0  0  0
 20 22  1  0  0  0
 22 23  1  0  0  0
 22 24  1  0  0  0
 31 25  1  0  0  0
  6  1  1  0  0  0
 13  8  1  0  0  0
 21 17  2  0  0  0
 14 15  1  0  0  0
 14 16  1  0  0  0
M  END
> <minimizedAffinity>
-9.19633

> <CNNscore>
0.8287158608

> <CNNaffinity>
7.9518671036

> <CNN_VS>
6.5898385048

> <CNNaffinity_variance>
0.1439777464

$$$$
[H]c1nc(N([H])[H])c(-c2nn(-c3c(Cl)c(OC([H])([H])[H])c([H])c(OC([H])([H])[H])c3Cl)c(=O)c([H])c2[H])nc1-c1c([H])nn(C([H])(C([H])([H])[H])C([H])([H])[H])c1[H]


 36 39  0  0  0  0  0  0  0  0999 V2000
   -5.7224   23.5957  -25.4419 N   0  0  0  0  0  0  0  0  0  0  0  0
   -4.4568   23.3231  -25.5475 N   0  0  0  0  0  0  0  0  0  0  0  0
   -3.7751   23.2083  -26.7348 C   0  0  0  0  0  0  0  0  0  0  0  0
   -4.5161   23.4009  -27.8505 C   0  0  0  0  0  0  0  0  0  0  0  0
   -5.8902   23.6984  -27.8023 C   0  0  0  0  0  0  0  0  0  0  0  0
   -6.4585   23.7872  -26.5600 C   0  0  0  0  0  0  0  0  0  0  0  0
   -7.6639   24.0462  -26.4463 O   0  0  0  0  0  0  0  0  0  0  0  0
   -2.3457   22.8901  -26.6459 C   0  0  0  0  0  0  0  0  0  0  0  0
   -1.8780   22.4520  -25.4239 N   0  0  0  0  0  0  0  0  0  0  0  0
   -0.6065   22.1312  -25.2145 C   0  0  0  0  0  0  0  0  0  0  0  0
    0.2470   22.2553  -26.2868 C   0  0  0  0  0  0  0  0  0  0  0  0
   -0.1747   22.6770  -27.4835 N   0  0  0  0  0  0  0  0  0  0  0  0
   -1.5014   23.0089  -27.6924 C   0  0  0  0  0  0  0  0  0  0  0  0
   -1.8264   23.4460  -28.9993 N   0  0  0  0  0  0  0  0  0  0  0  0
   -2.1114   22.7387  -29.7017 H   0  0  0  0  0  0  0  0  0  0  0  0
   -1.7826   24.4418  -29.2844 H   0  0  0  0  0  0  0  0  0  0  0  0
   -0.1717   21.6722  -23.9023 C   0  0  0  0  0  0  0  0  0  0  0  0
   -0.9481   21.3426  -22.8094 C   0  0  0  0  0  0  0  0  0  0  0  0
   -0.1018   20.9657  -21.8182 N   0  0  0  0  0  0  0  0  0  0  0  0
    1.1523   21.0388  -22.2205 N   0  0  0  0  0  0  0  0  0  0  0  0
    1.1297   21.4682  -23.4902 C   0  0  0  0  0  0  0  0  0  0  0  0
    2.3569   20.7137  -21.4452 C   0  0  0  0  0  0  0  0  0  0  0  0
    3.4382   20.2263  -22.3616 C   0  0  0  0  0  0  0  0  0  0  0  0
    2.0470   19.6135  -20.4550 C   0  0  0  0  0  0  0  0  0  0  0  0
   -7.2902   22.6958  -22.2359 C   0  0  0  0  0  0  0  0  0  0  0  0
   -7.5810   23.9393  -21.6992 C   0  0  0  0  0  0  0  0  0  0  0  0
   -7.2649   25.0898  -22.3847 C   0  0  0  0  0  0  0  0  0  0  0  0
   -6.6477   24.9336  -23.6249 C   0  0  0  0  0  0  0  0  0  0  0  0
   -6.2444   26.4035  -24.4956 Cl  0  0  0  0  0  0  0  0  0  0  0  0
   -6.3541   23.7026  -24.1680 C   0  0  0  0  0  0  0  0  0  0  0  0
   -6.6725   22.5484  -23.4773 C   0  0  0  0  0  0  0  0  0  0  0  0
   -6.3115   20.9660  -24.1320 Cl  0  0  0  0  0  0  0  0  0  0  0  0
   -8.3615   21.3979  -20.4269 C   0  0  0  0  0  0  0  0  0  0  0  0
   -7.5899   21.5112  -21.5826 O   0  0  0  0  0  0  0  0  0  0  0  0
   -7.5319   26.3561  -21.8984 O   0  0  0  0  0  0  0  0  0  0  0  0
   -8.4031   26.6847  -20.8641 C   0  0  0  0  0  0  0  0  0  0  0  0
 33 34  1  0  0  0
 34 25  1  0  0  0
 25 26  2  0  0  0
 26 27  1  0  0  0
 27 35  1  0  0  0
 35 36  1  0  0  0
 27 28  2  0  0  0
 28 29  1  0  0  0
 28 30  1  0  0  0
 30 31  2  0  0  0
 31 32  1  0  0  0
 30  1  1  0  0  0
  1  2  1  0  0  0
  2  3  2  0  0  0
  3  4  1  0  0  0
  4  5  2  0  0  0
  5  6  1  0  0  0
  6  7  2  0  0  0
  3  8  1  0  0  0
  8  9  2  0  0  0
  9 10  1  0  0  0
 10 11  2  0  0  0
 11 12  1  0  0  0
 12 13  2  0  0  0
 13 14  1  0  0  0
 10 17  1  0  0  0
 17 18  1  0  0  0
 18 19  2  0  0  0
 19 20  1  0  0  0
 20 21  1  0  0  0
 20 22  1  0  0  0
 22 23  1  0  0  0
 22 24  1  0  0  0
 31 25  1  0  0  0
  6  1  1  0  0  0
 13  8  1  0  0  0
 21 17  2  0  0  0
 14 15  1  0  0  0
 14 16  1  0  0  0
M  END
> <minimizedAffinity>
-9.19108

> <CNNscore>
0.8226639032

> <CNNaffinity>
7.9404816628

> <CNN_VS>
6.5323476791

> <CNNaffinity_variance>
0.1429587007

$$$$
[H]c1nc(N([H])[H])c(-c2nn(-c3c(Cl)c(OC([H])([H])[H])c([H])c(OC([H])([H])[H])c3Cl)c(=O)c([H])c2[H])nc1-c1c([H])nn(C([H])(C([H])([H])[H])C([H])([H])[H])c1[H]


 36 39  0  0  0  0  0  0  0  0999 V2000
    0.6137   20.7045  -20.5332 N   0  0  0  0  0  0  0  0  0  0  0  0
    0.4986   21.0083  -21.7909 N   0  0  0  0  0  0  0  0  0  0  0  0
   -0.5595   21.6915  -22.3396 C   0  0  0  0  0  0  0  0  0  0  0  0
   -1.5300   22.0547  -21.4693 C   0  0  0  0  0  0  0  0  0  0  0  0
   -1.4637   21.7551  -20.0964 C   0  0  0  0  0  0  0  0  0  0  0  0
   -0.3589   21.0696  -19.6676 C   0  0  0  0  0  0  0  0  0  0  0  0
   -0.2379   20.7741  -18.4715 O   0  0  0  0  0  0  0  0  0  0  0  0
   -0.5080   21.9353  -23.7854 C   0  0  0  0  0  0  0  0  0  0  0  0
   -1.6929   22.2781  -24.4038 N   0  0  0  0  0  0  0  0  0  0  0  0
   -1.7784   22.5249  -25.7058 C   0  0  0  0  0  0  0  0  0  0  0  0
   -0.6139   22.4232  -26.4321 C   0  0  0  0  0  0  0  0  0  0  0  0
    0.5500   22.0931  -25.8629 N   0  0  0  0  0  0  0  0  0  0  0  0
    0.6296   21.8378  -24.5055 C   0  0  0  0  0  0  0  0  0  0  0  0
    1.9143   21.4941  -24.0198 N   0  0  0  0  0  0  0  0  0  0  0  0
    2.5427   22.2542  -23.7000 H   0  0  0  0  0  0  0  0  0  0  0  0
    2.2550   20.5157  -23.9793 H   0  0  0  0  0  0  0  0  0  0  0  0
   -3.0576   22.8849  -26.3023 C   0  0  0  0  0  0  0  0  0  0  0  0
   -4.3099   22.8628  -25.7219 C   0  0  0  0  0  0  0  0  0  0  0  0
   -5.1923   23.2871  -26.6611 N   0  0  0  0  0  0  0  0  0  0  0  0
   -4.5728   23.5723  -27.7903 N   0  0  0  0  0  0  0  0  0  0  0  0
   -3.2691   23.3330  -27.5905 C   0  0  0  0  0  0  0  0  0  0  0  0
   -5.1748   24.0626  -29.0373 C   0  0  0  0  0  0  0  0  0  0  0  0
   -5.2976   22.9390  -30.0216 C   0  0  0  0  0  0  0  0  0  0  0  0
   -4.2928   25.1289  -29.6470 C   0  0  0  0  0  0  0  0  0  0  0  0
    3.8906   19.9782  -19.0228 C   0  0  0  0  0  0  0  0  0  0  0  0
    3.9425   18.5961  -19.0999 C   0  0  0  0  0  0  0  0  0  0  0  0
    2.9002   17.8852  -19.6494 C   0  0  0  0  0  0  0  0  0  0  0  0
    1.8120   18.6222  -20.1141 C   0  0  0  0  0  0  0  0  0  0  0  0
    0.4837   17.7118  -20.8127 Cl  0  0  0  0  0  0  0  0  0  0  0  0
    1.7498   19.9960  -20.0425 C   0  0  0  0  0  0  0  0  0  0  0  0
    2.7979   20.7078  -19.4900 C   0  0  0  0  0  0  0  0  0  0  0  0
    2.7542   22.4538  -19.3773 Cl  0  0  0  0  0  0  0  0  0  0  0  0
    5.1819   20.8757  -17.1172 C   0  0  0  0  0  0  0  0  0  0  0  0
    4.9153   20.7354  -18.4785 O   0  0  0  0  0  0  0  0  0  0  0  0
    2.8980   16.5065  -19.7527 O   0  0  0  0  0  0  0  0  0  0  0  0
    3.6350   15.7371  -20.6481 C   0  0  0  0  0  0  0  0  0  0  0  0
 33 34  1  0  0  0
 34 25  1  0  0  0
 25 26  2  0  0  0
 26 27  1  0  0  0
 27 35  1  0  0  0
 35 36  1  0  0  0
 27 28  2  0  0  0
 28 29  1  0  0  0
 28 30  1  0  0  0
 30 31  2  0  0  0
 31 32  1  0  0  0
 30  1  1  0  0  0
  1  2  1  0  0  0
  2  3  2  0  0  0
  3  4  1  0  0  0
  4  5  2  0  0  0
  5  6  1  0  0  0
  6  7  2  0  0  0
  3  8  1  0  0  0
  8  9  2  0  0  0
  9 10  1  0  0  0
 10 11  2  0  0  0
 11 12  1  0  0  0
 12 13  2  0  0  0
 13 14  1  0  0  0
 10 17  1  0  0  0
 17 18  1  0  0  0
 18 19  2  0  0  0
 19 20  1  0  0  0
 20 21  1  0  0  0
 20 22  1  0  0  0
 22 23  1  0  0  0
 22 24  1  0  0  0
 31 25  1  0  0  0
  6  1  1  0  0  0
 13  8  1  0  0  0
 21 17  2  0  0  0
 14 15  1  0  0  0
 14 16  1  0  0  0
M  END
> <minimizedAffinity>
-7.42184

> <CNNscore>
0.2697133124

> <CNNaffinity>
7.0841360092

> <CNN_VS>
1.9106857777

> <CNNaffinity_variance>
0.2746750712

$$$$
[H]c1nc(N([H])[H])c(-c2nn(-c3c(Cl)c(OC([H])([H])[H])c([H])c(OC([H])([H])[H])c3Cl)c(=O)c([H])c2[H])nc1-c1c([H])nn(C([H])(C([H])([H])[H])C([H])([H])[H])c1[H]


 36 39  0  0  0  0  0  0  0  0999 V2000
   -0.1375   21.1410  -20.5675 N   0  0  0  0  0  0  0  0  0  0  0  0
   -0.0072   21.3730  -21.8389 N   0  0  0  0  0  0  0  0  0  0  0  0
   -1.0206   21.7867  -22.6691 C   0  0  0  0  0  0  0  0  0  0  0  0
   -2.2259   21.9513  -22.0764 C   0  0  0  0  0  0  0  0  0  0  0  0
   -2.4312   21.7160  -20.7047 C   0  0  0  0  0  0  0  0  0  0  0  0
   -1.3442   21.3068  -19.9800 C   0  0  0  0  0  0  0  0  0  0  0  0
   -1.4559   21.0822  -18.7676 O   0  0  0  0  0  0  0  0  0  0  0  0
   -0.6744   21.9916  -24.0800 C   0  0  0  0  0  0  0  0  0  0  0  0
   -1.6999   22.3554  -24.9285 N   0  0  0  0  0  0  0  0  0  0  0  0
   -1.5163   22.5714  -26.2258 C   0  0  0  0  0  0  0  0  0  0  0  0
   -0.2353   22.4147  -26.7034 C   0  0  0  0  0  0  0  0  0  0  0  0
    0.7799   22.0629  -25.9076 N   0  0  0  0  0  0  0  0  0  0  0  0
    0.5793   21.8401  -24.5570 C   0  0  0  0  0  0  0  0  0  0  0  0
    1.7289   21.4688  -23.8186 N   0  0  0  0  0  0  0  0  0  0  0  0
    2.3081   22.2168  -23.3944 H   0  0  0  0  0  0  0  0  0  0  0  0
    2.0194   20.4816  -23.6926 H   0  0  0  0  0  0  0  0  0  0  0  0
   -2.6379   22.9559  -27.0719 C   0  0  0  0  0  0  0  0  0  0  0  0
   -2.7447   22.8670  -28.4455 C   0  0  0  0  0  0  0  0  0  0  0  0
   -3.9717   23.3386  -28.7813 N   0  0  0  0  0  0  0  0  0  0  0  0
   -4.6379   23.7165  -27.7074 N   0  0  0  0  0  0  0  0  0  0  0  0
   -3.8399   23.4905  -26.6543 C   0  0  0  0  0  0  0  0  0  0  0  0
   -5.9950   24.2762  -27.6521 C   0  0  0  0  0  0  0  0  0  0  0  0
   -5.9284   25.7561  -27.4238 C   0  0  0  0  0  0  0  0  0  0  0  0
   -6.7582   23.6560  -26.5033 C   0  0  0  0  0  0  0  0  0  0  0  0
    2.4132   19.0100  -18.9866 C   0  0  0  0  0  0  0  0  0  0  0  0
    3.1187   19.9251  -18.2225 C   0  0  0  0  0  0  0  0  0  0  0  0
    2.7646   21.2549  -18.2176 C   0  0  0  0  0  0  0  0  0  0  0  0
    1.6773   21.6193  -19.0102 C   0  0  0  0  0  0  0  0  0  0  0  0
    1.2298   23.3166  -19.0027 Cl  0  0  0  0  0  0  0  0  0  0  0  0
    0.9689   20.7182  -19.7736 C   0  0  0  0  0  0  0  0  0  0  0  0
    1.3266   19.3831  -19.7769 C   0  0  0  0  0  0  0  0  0  0  0  0
    0.4540   18.2085  -20.7372 Cl  0  0  0  0  0  0  0  0  0  0  0  0
    3.5749   17.0067  -18.1255 C   0  0  0  0  0  0  0  0  0  0  0  0
    2.7329   17.6624  -19.0227 O   0  0  0  0  0  0  0  0  0  0  0  0
    3.4315   22.2111  -17.4745 O   0  0  0  0  0  0  0  0  0  0  0  0
    3.3722   22.3850  -16.0950 C   0  0  0  0  0  0  0  0  0  0  0  0
 33 34  1  0  0  0
 34 25  1  0  0  0
 25 26  2  0  0  0
 26 27  1  0  0  0
 27 35  1  0  0  0
 35 36  1  0  0  0
 27 28  2  0  0  0
 28 29  1  0  0  0
 28 30  1  0  0  0
 30 31  2  0  0  0
 31 32  1  0  0  0
 30  1  1  0  0  0
  1  2  1  0  0  0
  2  3  2  0  0  0
  3  4  1  0  0  0
  4  5  2  0  0  0
  5  6  1  0  0  0
  6  7  2  0  0  0
  3  8  1  0  0  0
  8  9  2  0  0  0
  9 10  1  0  0  0
 10 11  2  0  0  0
 11 12  1  0  0  0
 12 13  2  0  0  0
 13 14  1  0  0  0
 10 17  1  0  0  0
 17 18  1  0  0  0
 18 19  2  0  0  0
 19 20  1  0  0  0
 20 21  1  0  0  0
 20 22  1  0  0  0
 22 23  1  0  0  0
 22 24  1  0  0  0
 31 25  1  0  0  0
  6  1  1  0  0  0
 13  8  1  0  0  0
 21 17  2  0  0  0
 14 15  1  0  0  0
 14 16  1  0  0  0
M  END
> <minimizedAffinity>
-7.34390

> <CNNscore>
0.2690452635

> <CNNaffinity>
7.1295409203

> <CNN_VS>
1.9181692600

> <CNNaffinity_variance>
0.1467777044

$$$$
[H]c1nc(N([H])[H])c(-c2nn(-c3c(Cl)c(OC([H])([H])[H])c([H])c(OC([H])([H])[H])c3Cl)c(=O)c([H])c2[H])nc1-c1c([H])nn(C([H])(C([H])([H])[H])C([H])([H])[H])c1[H]


 36 39  0  0  0  0  0  0  0  0999 V2000
    0.7571   20.6703  -20.5335 N   0  0  0  0  0  0  0  0  0  0  0  0
    0.5767   20.9870  -21.7802 N   0  0  0  0  0  0  0  0  0  0  0  0
   -0.5026   21.6857  -22.2643 C   0  0  0  0  0  0  0  0  0  0  0  0
   -1.4203   22.0503  -21.3391 C   0  0  0  0  0  0  0  0  0  0  0  0
   -1.2824   21.7372  -19.9746 C   0  0  0  0  0  0  0  0  0  0  0  0
   -0.1631   21.0369  -19.6128 C   0  0  0  0  0  0  0  0  0  0  0  0
    0.0199   20.7289  -18.4277 O   0  0  0  0  0  0  0  0  0  0  0  0
   -0.5275   21.9425  -23.7085 C   0  0  0  0  0  0  0  0  0  0  0  0
   -1.7511   22.2493  -24.2676 N   0  0  0  0  0  0  0  0  0  0  0  0
   -1.9060   22.5033  -25.5618 C   0  0  0  0  0  0  0  0  0  0  0  0
   -0.7742   22.4475  -26.3426 C   0  0  0  0  0  0  0  0  0  0  0  0
    0.4258   22.1531  -25.8316 N   0  0  0  0  0  0  0  0  0  0  0  0
    0.5777   21.8900  -24.4819 C   0  0  0  0  0  0  0  0  0  0  0  0
    1.8948   21.5869  -24.0600 N   0  0  0  0  0  0  0  0  0  0  0  0
    2.5113   22.3656  -23.7627 H   0  0  0  0  0  0  0  0  0  0  0  0
    2.2701   20.6205  -24.0447 H   0  0  0  0  0  0  0  0  0  0  0  0
   -3.2233   22.8237  -26.0945 C   0  0  0  0  0  0  0  0  0  0  0  0
   -4.4238   22.9073  -25.4179 C   0  0  0  0  0  0  0  0  0  0  0  0
   -5.3728   23.2388  -26.3291 N   0  0  0  0  0  0  0  0  0  0  0  0
   -4.8435   23.3672  -27.5305 N   0  0  0  0  0  0  0  0  0  0  0  0
   -3.5322   23.1176  -27.4071 C   0  0  0  0  0  0  0  0  0  0  0  0
   -5.5373   23.7190  -28.7765 C   0  0  0  0  0  0  0  0  0  0  0  0
   -5.2045   22.7224  -29.8455 C   0  0  0  0  0  0  0  0  0  0  0  0
   -5.0849   25.0832  -29.2470 C   0  0  0  0  0  0  0  0  0  0  0  0
    3.0580   17.8963  -19.7873 C   0  0  0  0  0  0  0  0  0  0  0  0
    4.1617   18.5657  -19.2845 C   0  0  0  0  0  0  0  0  0  0  0  0
    4.1633   19.9382  -19.1847 C   0  0  0  0  0  0  0  0  0  0  0  0
    3.0134   20.6013  -19.6104 C   0  0  0  0  0  0  0  0  0  0  0  0
    3.0199   22.3520  -19.4832 Cl  0  0  0  0  0  0  0  0  0  0  0  0
    1.9107   19.9460  -20.1118 C   0  0  0  0  0  0  0  0  0  0  0  0
    1.9115   18.5674  -20.2111 C   0  0  0  0  0  0  0  0  0  0  0  0
    0.5314   17.6990  -20.8469 Cl  0  0  0  0  0  0  0  0  0  0  0  0
    3.6726   15.7654  -20.8765 C   0  0  0  0  0  0  0  0  0  0  0  0
    3.0109   16.5166  -19.9060 O   0  0  0  0  0  0  0  0  0  0  0  0
    5.2352   20.6581  -18.6907 O   0  0  0  0  0  0  0  0  0  0  0  0
    5.5874   20.8159  -17.3535 C   0  0  0  0  0  0  0  0  0  0  0  0
 33 34  1  0  0  0
 34 25  1  0  0  0
 25 26  2  0  0  0
 26 27  1  0  0  0
 27 35  1  0  0  0
 35 36  1  0  0  0
 27 28  2  0  0  0
 28 29  1  0  0  0
 28 30  1  0  0  0
 30 31  2  0  0  0
 31 32  1  0  0  0
 30  1  1  0  0  0
  1  2  1  0  0  0
  2  3  2  0  0  0
  3  4  1  0  0  0
  4  5  2  0  0  0
  5  6  1  0  0  0
  6  7  2  0  0  0
  3  8  1  0  0  0
  8  9  2  0  0  0
  9 10  1  0  0  0
 10 11  2  0  0  0
 11 12  1  0  0  0
 12 13  2  0  0  0
 13 14  1  0  0  0
 10 17  1  0  0  0
 17 18  1  0  0  0
 18 19  2  0  0  0
 19 20  1  0  0  0
 20 21  1  0  0  0
 20 22  1  0  0  0
 22 23  1  0  0  0
 22 24  1  0  0  0
 31 25  1  0  0  0
  6  1  1  0  0  0
 13  8  1  0  0  0
 21 17  2  0  0  0
 14 15  1  0  0  0
 14 16  1  0  0  0
M  END
> <minimizedAffinity>
-7.39715

> <CNNscore>
0.2394419909

> <CNNaffinity>
7.0397009850

> <CNN_VS>
1.6856000423

> <CNNaffinity_variance>
0.3071139753

$$$$
[H]c1nc(N([H])[H])c(-c2nn(-c3c(Cl)c(OC([H])([H])[H])c([H])c(OC([H])([H])[H])c3Cl)c(=O)c([H])c2[H])nc1-c1c([H])nn(C([H])(C([H])([H])[H])C([H])([H])[H])c1[H]


 36 39  0  0  0  0  0  0  0  0999 V2000
   -0.8783   21.5521  -20.6488 N   0  0  0  0  0  0  0  0  0  0  0  0
   -0.8297   21.8036  -21.9223 N   0  0  0  0  0  0  0  0  0  0  0  0
   -1.9271   21.9767  -22.7305 C   0  0  0  0  0  0  0  0  0  0  0  0
   -3.1260   21.8685  -22.1125 C   0  0  0  0  0  0  0  0  0  0  0  0
   -3.2448   21.5973  -20.7372 C   0  0  0  0  0  0  0  0  0  0  0  0
   -2.0790   21.4448  -20.0360 C   0  0  0  0  0  0  0  0  0  0  0  0
   -2.1123   21.2045  -18.8219 O   0  0  0  0  0  0  0  0  0  0  0  0
   -1.6651   22.2498  -24.1480 C   0  0  0  0  0  0  0  0  0  0  0  0
   -2.7330   22.6782  -24.9095 N   0  0  0  0  0  0  0  0  0  0  0  0
   -2.6259   22.9594  -26.2029 C   0  0  0  0  0  0  0  0  0  0  0  0
   -1.3810   22.8035  -26.7684 C   0  0  0  0  0  0  0  0  0  0  0  0
   -0.3264   22.3901  -26.0581 N   0  0  0  0  0  0  0  0  0  0  0  0
   -0.4474   22.0996  -24.7108 C   0  0  0  0  0  0  0  0  0  0  0  0
    0.7373   21.6672  -24.0672 N   0  0  0  0  0  0  0  0  0  0  0  0
    1.3587   22.3801  -23.6424 H   0  0  0  0  0  0  0  0  0  0  0  0
    1.0126   20.6692  -24.0114 H   0  0  0  0  0  0  0  0  0  0  0  0
   -3.7890   23.4102  -26.9550 C   0  0  0  0  0  0  0  0  0  0  0  0
   -5.1187   23.3605  -26.5873 C   0  0  0  0  0  0  0  0  0  0  0  0
   -5.8344   23.9001  -27.6058 N   0  0  0  0  0  0  0  0  0  0  0  0
   -5.0386   24.2831  -28.5856 N   0  0  0  0  0  0  0  0  0  0  0  0
   -3.7862   23.9921  -28.2065 C   0  0  0  0  0  0  0  0  0  0  0  0
   -5.4274   24.9128  -29.8545 C   0  0  0  0  0  0  0  0  0  0  0  0
   -5.7437   23.8586  -30.8720 C   0  0  0  0  0  0  0  0  0  0  0  0
   -4.2838   25.7495  -30.3826 C   0  0  0  0  0  0  0  0  0  0  0  0
    2.1414   20.0664  -19.1587 C   0  0  0  0  0  0  0  0  0  0  0  0
    2.6150   21.1047  -18.3736 C   0  0  0  0  0  0  0  0  0  0  0  0
    1.9474   22.3071  -18.3244 C   0  0  0  0  0  0  0  0  0  0  0  0
    0.7909   22.4164  -19.0950 C   0  0  0  0  0  0  0  0  0  0  0  0
   -0.0570   23.9520  -19.0310 Cl  0  0  0  0  0  0  0  0  0  0  0  0
    0.3110   21.3909  -19.8789 C   0  0  0  0  0  0  0  0  0  0  0  0
    0.9835   20.1842  -19.9267 C   0  0  0  0  0  0  0  0  0  0  0  0
    0.4078   18.8589  -20.9142 Cl  0  0  0  0  0  0  0  0  0  0  0  0
    3.8721   18.5478  -20.0548 C   0  0  0  0  0  0  0  0  0  0  0  0
    2.7795   18.8392  -19.2392 O   0  0  0  0  0  0  0  0  0  0  0  0
    2.3733   23.3765  -17.5587 O   0  0  0  0  0  0  0  0  0  0  0  0
    3.3477   23.3541  -16.5653 C   0  0  0  0  0  0  0  0  0  0  0  0
 33 34  1  0  0  0
 34 25  1  0  0  0
 25 26  2  0  0  0
 26 27  1  0  0  0
 27 35  1  0  0  0
 35 36  1  0  0  0
 27 28  2  0  0  0
 28 29  1  0  0  0
 28 30  1  0  0  0
 30 31  2  0  0  0
 31 32  1  0  0  0
 30  1  1  0  0  0
  1  2  1  0  0  0
  2  3  2  0  0  0
  3  4  1  0  0  0
  4  5  2  0  0  0
  5  6  1  0  0  0
  6  7  2  0  0  0
  3  8  1  0  0  0
  8  9  2  0  0  0
  9 10  1  0  0  0
 10 11  2  0  0  0
 11 12  1  0  0  0
 12 13  2  0  0  0
 13 14  1  0  0  0
 10 17  1  0  0  0
 17 18  1  0  0  0
 18 19  2  0  0  0
 19 20  1  0  0  0
 20 21  1  0  0  0
 20 22  1  0  0  0
 22 23  1  0  0  0
 22 24  1  0  0  0
 31 25  1  0  0  0
  6  1  1  0  0  0
 13  8  1  0  0  0
 21 17  2  0  0  0
 14 15  1  0  0  0
 14 16  1  0  0  0
M  END
> <minimizedAffinity>
-7.64948

> <CNNscore>
0.2191027850

> <CNNaffinity>
7.1671586037

> <CNN_VS>
1.5703444481

> <CNNaffinity_variance>
0.3332841694

$$$$
[H]c1nc(N([H])[H])c(-c2nn(-c3c(Cl)c(OC([H])([H])[H])c([H])c(OC([H])([H])[H])c3Cl)c(=O)c([H])c2[H])nc1-c1c([H])nn(C([H])(C([H])([H])[H])C([H])([H])[H])c1[H]


 36 39  0  0  0  0  0  0  0  0999 V2000
   -0.9172   21.4992  -22.2857 N   0  0  0  0  0  0  0  0  0  0  0  0
   -0.4759   20.3184  -21.9724 N   0  0  0  0  0  0  0  0  0  0  0  0
   -0.0298   19.9525  -20.7256 C   0  0  0  0  0  0  0  0  0  0  0  0
   -0.0710   20.9253  -19.7858 C   0  0  0  0  0  0  0  0  0  0  0  0
   -0.5376   22.2232  -20.0626 C   0  0  0  0  0  0  0  0  0  0  0  0
   -0.9561   22.4679  -21.3429 C   0  0  0  0  0  0  0  0  0  0  0  0
   -1.3786   23.5894  -21.6538 O   0  0  0  0  0  0  0  0  0  0  0  0
    0.4345   18.5694  -20.5715 C   0  0  0  0  0  0  0  0  0  0  0  0
   -0.4698   17.6597  -20.0631 N   0  0  0  0  0  0  0  0  0  0  0  0
   -0.1727   16.3788  -19.8770 C   0  0  0  0  0  0  0  0  0  0  0  0
    1.1007   15.9838  -20.2177 C   0  0  0  0  0  0  0  0  0  0  0  0
    2.0003   16.8405  -20.7124 N   0  0  0  0  0  0  0  0  0  0  0  0
    1.6817   18.1732  -20.9031 C   0  0  0  0  0  0  0  0  0  0  0  0
    2.7175   18.9829  -21.4285 N   0  0  0  0  0  0  0  0  0  0  0  0
    2.8017   19.0734  -22.4579 H   0  0  0  0  0  0  0  0  0  0  0  0
    3.3994   19.4810  -20.8270 H   0  0  0  0  0  0  0  0  0  0  0  0
   -1.1706   15.4644  -19.3387 C   0  0  0  0  0  0  0  0  0  0  0  0
   -0.9869   14.4194  -18.4554 C   0  0  0  0  0  0  0  0  0  0  0  0
   -2.2041   13.8599  -18.2412 N   0  0  0  0  0  0  0  0  0  0  0  0
   -3.1358   14.4869  -18.9331 N   0  0  0  0  0  0  0  0  0  0  0  0
   -2.5239   15.4694  -19.6093 C   0  0  0  0  0  0  0  0  0  0  0  0
   -4.5733   14.1862  -18.9682 C   0  0  0  0  0  0  0  0  0  0  0  0
   -4.7830   12.7071  -19.0895 C   0  0  0  0  0  0  0  0  0  0  0  0
   -5.2066   14.8520  -20.1692 C   0  0  0  0  0  0  0  0  0  0  0  0
   -3.1236   22.0720  -25.1754 C   0  0  0  0  0  0  0  0  0  0  0  0
   -2.2143   22.3750  -26.1755 C   0  0  0  0  0  0  0  0  0  0  0  0
   -0.8637   22.3951  -25.9123 C   0  0  0  0  0  0  0  0  0  0  0  0
   -0.4727   22.0989  -24.6074 C   0  0  0  0  0  0  0  0  0  0  0  0
    1.2506   22.1273  -24.2751 Cl  0  0  0  0  0  0  0  0  0  0  0  0
   -1.3678   21.7964  -23.6055 C   0  0  0  0  0  0  0  0  0  0  0  0
   -2.7239   21.7770  -23.8724 C   0  0  0  0  0  0  0  0  0  0  0  0
   -3.8926   21.4015  -22.6250 Cl  0  0  0  0  0  0  0  0  0  0  0  0
   -5.2964   23.1492  -25.6476 C   0  0  0  0  0  0  0  0  0  0  0  0
   -4.4914   22.0395  -25.3936 O   0  0  0  0  0  0  0  0  0  0  0  0
    0.0881   22.6898  -26.8707 O   0  0  0  0  0  0  0  0  0  0  0  0
   -0.1421   22.9755  -28.2132 C   0  0  0  0  0  0  0  0  0  0  0  0
 33 34  1  0  0  0
 34 25  1  0  0  0
 25 26  2  0  0  0
 26 27  1  0  0  0
 27 35  1  0  0  0
 35 36  1  0  0  0
 27 28  2  0  0  0
 28 29  1  0  0  0
 28 30  1  0  0  0
 30 31  2  0  0  0
 31 32  1  0  0  0
 30  1  1  0  0  0
  1  2  1  0  0  0
  2  3  2  0  0  0
  3  4  1  0  0  0
  4  5  2  0  0  0
  5  6  1  0  0  0
  6  7  2  0  0  0
  3  8  1  0  0  0
  8  9  2  0  0  0
  9 10  1  0  0  0
 10 11  2  0  0  0
 11 12  1  0  0  0
 12 13  2  0  0  0
 13 14  1  0  0  0
 10 17  1  0  0  0
 17 18  1  0  0  0
 18 19  2  0  0  0
 19 20  1  0  0  0
 20 21  1  0  0  0
 20 22  1  0  0  0
 22 23  1  0  0  0
 22 24  1  0  0  0
 31 25  1  0  0  0
  6  1  1  0  0  0
 13  8  1  0  0  0
 21 17  2  0  0  0
 14 15  1  0  0  0
 14 16  1  0  0  0
M  END
> <minimizedAffinity>
-6.95617

> <CNNscore>
0.1681012362

> <CNNaffinity>
6.5402297974

> <CNN_VS>
1.0994206667

> <CNNaffinity_variance>
0.0309211127

$$$$
[H]c1nc(N([H])[H])c(-c2nn(-c3c(Cl)c(OC([H])([H])[H])c([H])c(OC([H])([H])[H])c3Cl)c(=O)c([H])c2[H])nc1-c1c([H])nn(C([H])(C([H])([H])[H])C([H])([H])[H])c1[H]


 36 39  0  0  0  0  0  0  0  0999 V2000
   -0.8737   21.4284  -22.2504 N   0  0  0  0  0  0  0  0  0  0  0  0
   -0.4254   20.2529  -21.9267 N   0  0  0  0  0  0  0  0  0  0  0  0
    0.0281   19.9024  -20.6781 C   0  0  0  0  0  0  0  0  0  0  0  0
   -0.0130   20.8849  -19.7486 C   0  0  0  0  0  0  0  0  0  0  0  0
   -0.4869   22.1778  -20.0370 C   0  0  0  0  0  0  0  0  0  0  0  0
   -0.9126   22.4069  -21.3178 C   0  0  0  0  0  0  0  0  0  0  0  0
   -1.3416   23.5231  -21.6385 O   0  0  0  0  0  0  0  0  0  0  0  0
    0.4996   18.5231  -20.5115 C   0  0  0  0  0  0  0  0  0  0  0  0
   -0.4190   17.5996  -20.0565 N   0  0  0  0  0  0  0  0  0  0  0  0
   -0.1173   16.3205  -19.8656 C   0  0  0  0  0  0  0  0  0  0  0  0
    1.1760   15.9421  -20.1447 C   0  0  0  0  0  0  0  0  0  0  0  0
    2.0896   16.8124  -20.5867 N   0  0  0  0  0  0  0  0  0  0  0  0
    1.7662   18.1432  -20.7829 C   0  0  0  0  0  0  0  0  0  0  0  0
    2.8180   18.9683  -21.2491 N   0  0  0  0  0  0  0  0  0  0  0  0
    2.9529   19.0683  -22.2722 H   0  0  0  0  0  0  0  0  0  0  0  0
    3.4632   19.4687  -20.6102 H   0  0  0  0  0  0  0  0  0  0  0  0
   -1.1308   15.3910  -19.3853 C   0  0  0  0  0  0  0  0  0  0  0  0
   -0.9587   14.2612  -18.6108 C   0  0  0  0  0  0  0  0  0  0  0  0
   -2.1881   13.7226  -18.4128 N   0  0  0  0  0  0  0  0  0  0  0  0
   -3.1165   14.4419  -19.0133 N   0  0  0  0  0  0  0  0  0  0  0  0
   -2.4902   15.4645  -19.6123 C   0  0  0  0  0  0  0  0  0  0  0  0
   -4.5639   14.1916  -19.0321 C   0  0  0  0  0  0  0  0  0  0  0  0
   -4.8266   12.7241  -19.1874 C   0  0  0  0  0  0  0  0  0  0  0  0
   -5.1925   14.9095  -20.2052 C   0  0  0  0  0  0  0  0  0  0  0  0
   -0.8930   22.2396  -25.8403 C   0  0  0  0  0  0  0  0  0  0  0  0
   -2.2487   22.2535  -26.1245 C   0  0  0  0  0  0  0  0  0  0  0  0
   -3.1740   21.9960  -25.1390 C   0  0  0  0  0  0  0  0  0  0  0  0
   -2.6772   21.7259  -23.8648 C   0  0  0  0  0  0  0  0  0  0  0  0
   -3.8604   21.3961  -22.6108 Cl  0  0  0  0  0  0  0  0  0  0  0  0
   -1.3319   21.7094  -23.5711 C   0  0  0  0  0  0  0  0  0  0  0  0
   -0.4044   21.9683  -24.5628 C   0  0  0  0  0  0  0  0  0  0  0  0
    1.3137   21.9522  -24.2299 Cl  0  0  0  0  0  0  0  0  0  0  0  0
   -0.1729   22.9081  -28.1073 C   0  0  0  0  0  0  0  0  0  0  0  0
    0.0743   22.4930  -26.7995 O   0  0  0  0  0  0  0  0  0  0  0  0
   -4.5379   21.9971  -25.3649 O   0  0  0  0  0  0  0  0  0  0  0  0
   -5.3850   23.1011  -25.3434 C   0  0  0  0  0  0  0  0  0  0  0  0
 33 34  1  0  0  0
 34 25  1  0  0  0
 25 26  2  0  0  0
 26 27  1  0  0  0
 27 35  1  0  0  0
 35 36  1  0  0  0
 27 28  2  0  0  0
 28 29  1  0  0  0
 28 30  1  0  0  0
 30 31  2  0  0  0
 31 32  1  0  0  0
 30  1  1  0  0  0
  1  2  1  0  0  0
  2  3  2  0  0  0
  3  4  1  0  0  0
  4  5  2  0  0  0
  5  6  1  0  0  0
  6  7  2  0  0  0
  3  8  1  0  0  0
  8  9  2  0  0  0
  9 10  1  0  0  0
 10 11  2  0  0  0
 11 12  1  0  0  0
 12 13  2  0  0  0
 13 14  1  0  0  0
 10 17  1  0  0  0
 17 18  1  0  0  0
 18 19  2  0  0  0
 19 20  1  0  0  0
 20 21  1  0  0  0
 20 22  1  0  0  0
 22 23  1  0  0  0
 22 24  1  0  0  0
 31 25  1  0  0  0
  6  1  1  0  0  0
 13  8  1  0  0  0
 21 17  2  0  0  0
 14 15  1  0  0  0
 14 16  1  0  0  0
M  END
> <minimizedAffinity>
-7.00964

> <CNNscore>
0.1638897359

> <CNNaffinity>
6.4912996292

> <CNN_VS>
1.0638574362

> <CNNaffinity_variance>
0.0390194729

$$$$
[H]c1nc(N([H])[H])c(-c2nn(-c3c(Cl)c(OC([H])([H])[H])c([H])c(OC([H])([H])[H])c3Cl)c(=O)c([H])c2[H])nc1-c1c([H])nn(C([H])(C([H])([H])[H])C([H])([H])[H])c1[H]


 36 39  0  0  0  0  0  0  0  0999 V2000
    0.6313   20.6466  -21.4010 N   0  0  0  0  0  0  0  0  0  0  0  0
   -0.1303   21.0502  -22.3727 N   0  0  0  0  0  0  0  0  0  0  0  0
    0.3209   21.4772  -23.5981 C   0  0  0  0  0  0  0  0  0  0  0  0
    1.6641   21.4595  -23.7605 C   0  0  0  0  0  0  0  0  0  0  0  0
    2.5417   21.0339  -22.7466 C   0  0  0  0  0  0  0  0  0  0  0  0
    1.9732   20.6310  -21.5682 C   0  0  0  0  0  0  0  0  0  0  0  0
    2.6885   20.2444  -20.6346 O   0  0  0  0  0  0  0  0  0  0  0  0
   -0.6985   21.8987  -24.5654 C   0  0  0  0  0  0  0  0  0  0  0  0
   -2.0034   21.9417  -24.1190 N   0  0  0  0  0  0  0  0  0  0  0  0
   -3.0165   22.3074  -24.8958 C   0  0  0  0  0  0  0  0  0  0  0  0
   -2.7090   22.6497  -26.1927 C   0  0  0  0  0  0  0  0  0  0  0  0
   -1.4551   22.6184  -26.6558 N   0  0  0  0  0  0  0  0  0  0  0  0
   -0.4058   22.2362  -25.8392 C   0  0  0  0  0  0  0  0  0  0  0  0
    0.8747   22.2385  -26.4434 N   0  0  0  0  0  0  0  0  0  0  0  0
    1.4386   23.1077  -26.4058 H   0  0  0  0  0  0  0  0  0  0  0  0
    1.2670   21.4106  -26.9287 H   0  0  0  0  0  0  0  0  0  0  0  0
   -4.3737   22.3356  -24.3675 C   0  0  0  0  0  0  0  0  0  0  0  0
   -5.2354   21.2766  -24.1630 C   0  0  0  0  0  0  0  0  0  0  0  0
   -6.3824   21.7892  -23.6508 N   0  0  0  0  0  0  0  0  0  0  0  0
   -6.2934   23.0989  -23.5223 N   0  0  0  0  0  0  0  0  0  0  0  0
   -5.0743   23.4508  -23.9548 C   0  0  0  0  0  0  0  0  0  0  0  0
   -7.3183   24.0149  -23.0042 C   0  0  0  0  0  0  0  0  0  0  0  0
   -7.8988   24.8200  -24.1273 C   0  0  0  0  0  0  0  0  0  0  0  0
   -6.6959   24.9711  -22.0116 C   0  0  0  0  0  0  0  0  0  0  0  0
   -0.6143   18.4768  -18.7016 C   0  0  0  0  0  0  0  0  0  0  0  0
   -0.9899   19.4009  -17.7403 C   0  0  0  0  0  0  0  0  0  0  0  0
   -0.8380   20.7496  -17.9676 C   0  0  0  0  0  0  0  0  0  0  0  0
   -0.2953   21.1233  -19.1961 C   0  0  0  0  0  0  0  0  0  0  0  0
   -0.1014   22.8444  -19.4815 Cl  0  0  0  0  0  0  0  0  0  0  0  0
    0.0815   20.2135  -20.1587 C   0  0  0  0  0  0  0  0  0  0  0  0
   -0.0720   18.8593  -19.9280 C   0  0  0  0  0  0  0  0  0  0  0  0
    0.3990   17.6721  -21.1246 Cl  0  0  0  0  0  0  0  0  0  0  0  0
    0.0141   16.3326  -17.6470 C   0  0  0  0  0  0  0  0  0  0  0  0
   -0.7487   17.1102  -18.5173 O   0  0  0  0  0  0  0  0  0  0  0  0
   -1.1957   21.7157  -17.0456 O   0  0  0  0  0  0  0  0  0  0  0  0
   -1.9371   21.5242  -15.8835 C   0  0  0  0  0  0  0  0  0  0  0  0
 33 34  1  0  0  0
 34 25  1  0  0  0
 25 26  2  0  0  0
 26 27  1  0  0  0
 27 35  1  0  0  0
 35 36  1  0  0  0
 27 28  2  0  0  0
 28 29  1  0  0  0
 28 30  1  0  0  0
 30 31  2  0  0  0
 31 32  1  0  0  0
 30  1  1  0  0  0
  1  2  1  0  0  0
  2  3  2  0  0  0
  3  4  1  0  0  0
  4  5  2  0  0  0
  5  6  1  0  0  0
  6  7  2  0  0  0
  3  8  1  0  0  0
  8  9  2  0  0  0
  9 10  1  0  0  0
 10 11  2  0  0  0
 11 12  1  0  0  0
 12 13  2  0  0  0
 13 14  1  0  0  0
 10 17  1  0  0  0
 17 18  1  0  0  0
 18 19  2  0  0  0
 19 20  1  0  0  0
 20 21  1  0  0  0
 20 22  1  0  0  0
 22 23  1  0  0  0
 22 24  1  0  0  0
 31 25  1  0  0  0
  6  1  1  0  0  0
 13  8  1  0  0  0
 21 17  2  0  0  0
 14 15  1  0  0  0
 14 16  1  0  0  0
M  END
> <minimizedAffinity>
-7.06700

> <CNNscore>
0.1429590285

> <CNNaffinity>
6.7373290062

> <CNN_VS>
0.9631620049

> <CNNaffinity_variance>
0.0622218959

$$$$
[H]OC([H])([H])C([H])([H])N1C([H])([H])C([H])([H])C([H])(c2c([H])c([H])c(C(=O)N([H])c3nc([H])c([H])c(Oc4c(OC([H])([H])C([H])([H])OC([H])([H])[H])c([H])c5c(c4[H])c([H])c([H])n5C(=O)N([H])C([H])([H])[H])c3[H])c([H])c2[H])C([H])([H])C1([H])[H]


 46 50  0  0  0  0  0  0  0  0999 V2000
   -2.4124   22.8195  -27.4148 C   0  0  0  0  0  0  0  0  0  0  0  0
   -1.8507   23.3886  -28.5320 C   0  0  0  0  0  0  0  0  0  0  0  0
   -0.4737   23.3782  -28.6738 C   0  0  0  0  0  0  0  0  0  0  0  0
    0.3031   22.8276  -27.7489 N   0  0  0  0  0  0  0  0  0  0  0  0
   -0.1985   22.2523  -26.6285 C   0  0  0  0  0  0  0  0  0  0  0  0
   -1.5565   22.2566  -26.4770 C   0  0  0  0  0  0  0  0  0  0  0  0
    0.6831   21.6676  -25.6600 N   0  0  0  0  0  0  0  0  0  0  0  0
    0.5096   21.8801  -24.2835 C   0  0  0  0  0  0  0  0  0  0  0  0
   -0.4409   22.6016  -23.8674 O   0  0  0  0  0  0  0  0  0  0  0  0
    1.4517   21.0829  -26.0198 H   0  0  0  0  0  0  0  0  0  0  0  0
    1.3959   21.2936  -23.2965 C   0  0  0  0  0  0  0  0  0  0  0  0
    2.7112   21.0113  -23.5729 C   0  0  0  0  0  0  0  0  0  0  0  0
    3.5256   20.4554  -22.6013 C   0  0  0  0  0  0  0  0  0  0  0  0
    3.0901   20.1532  -21.3229 C   0  0  0  0  0  0  0  0  0  0  0  0
    1.7663   20.4425  -21.0604 C   0  0  0  0  0  0  0  0  0  0  0  0
    0.9512   20.9937  -22.0174 C   0  0  0  0  0  0  0  0  0  0  0  0
    3.9896   19.5562  -20.3042 C   0  0  0  0  0  0  0  0  0  0  0  0
    5.4508   19.6785  -20.6828 C   0  0  0  0  0  0  0  0  0  0  0  0
    6.2379   18.7535  -19.7766 C   0  0  0  0  0  0  0  0  0  0  0  0
    5.9530   17.3507  -20.0462 N   0  0  0  0  0  0  0  0  0  0  0  0
    4.6330   17.1428  -20.5369 C   0  0  0  0  0  0  0  0  0  0  0  0
    3.6295   18.1262  -19.9614 C   0  0  0  0  0  0  0  0  0  0  0  0
    7.0086   16.7078  -20.7482 C   0  0  0  0  0  0  0  0  0  0  0  0
    6.7001   16.4332  -22.1747 C   0  0  0  0  0  0  0  0  0  0  0  0
    6.9225   17.4712  -23.0503 O   0  0  0  0  0  0  0  0  0  0  0  0
    7.8451   17.4576  -23.4117 H   0  0  0  0  0  0  0  0  0  0  0  0
   -3.7617   22.8181  -27.2499 O   0  0  0  0  0  0  0  0  0  0  0  0
   -8.9432   26.2335  -20.7483 C   0  0  0  0  0  0  0  0  0  0  0  0
   -8.2888   25.0657  -21.2769 N   0  0  0  0  0  0  0  0  0  0  0  0
   -7.5249   25.1358  -22.4618 C   0  0  0  0  0  0  0  0  0  0  0  0
   -7.4474   26.2527  -23.0218 O   0  0  0  0  0  0  0  0  0  0  0  0
   -6.8957   23.9540  -22.9469 N   0  0  0  0  0  0  0  0  0  0  0  0
   -6.9605   22.7254  -22.3614 C   0  0  0  0  0  0  0  0  0  0  0  0
   -6.2220   21.8697  -23.1418 C   0  0  0  0  0  0  0  0  0  0  0  0
   -5.7085   22.5837  -24.2040 C   0  0  0  0  0  0  0  0  0  0  0  0
   -4.9127   22.2470  -25.2777 C   0  0  0  0  0  0  0  0  0  0  0  0
   -4.5443   23.2178  -26.2206 C   0  0  0  0  0  0  0  0  0  0  0  0
   -4.9701   24.5273  -26.0932 C   0  0  0  0  0  0  0  0  0  0  0  0
   -5.7742   24.8606  -25.0076 C   0  0  0  0  0  0  0  0  0  0  0  0
   -6.1387   23.8935  -24.0709 C   0  0  0  0  0  0  0  0  0  0  0  0
   -8.3868   24.1731  -20.7751 H   0  0  0  0  0  0  0  0  0  0  0  0
   -4.5560   25.3921  -27.0546 O   0  0  0  0  0  0  0  0  0  0  0  0
   -5.2648   25.9996  -28.0654 C   0  0  0  0  0  0  0  0  0  0  0  0
   -5.2644   25.3514  -29.4027 C   0  0  0  0  0  0  0  0  0  0  0  0
   -5.9902   24.1667  -29.4460 O   0  0  0  0  0  0  0  0  0  0  0  0
   -5.4637   23.2120  -30.2723 C   0  0  0  0  0  0  0  0  0  0  0  0
 28 29  1  0  0  0
 29 30  1  0  0  0
 30 31  2  0  0  0
 30 32  1  0  0  0
 32 33  1  0  0  0
 33 34  2  0  0  0
 34 35  1  0  0  0
 35 36  2  0  0  0
 36 37  1  0  0  0
 37 27  1  0  0  0
 27  1  1  0  0  0
  1  2  2  0  0  0
  2  3  1  0  0  0
  3  4  2  0  0  0
  4  5  1  0  0  0
  5  7  1  0  0  0
  7  8  1  0  0  0
  8  9  2  0  0  0
  8 11  1  0  0  0
 11 12  2  0  0  0
 12 13  1  0  0  0
 13 14  2  0  0  0
 14 15  1  0  0  0
 15 16  2  0  0  0
 14 17  1  0  0  0
 17 18  1  0  0  0
 18 19  1  0  0  0
 19 20  1  0  0  0
 20 23  1  0  0  0
 23 24  1  0  0  0
 24 25  1  0  0  0
 20 21  1  0  0  0
 21 22  1  0  0  0
  5  6  2  0  0  0
 37 38  2  0  0  0
 38 42  1  0  0  0
 42 43  1  0  0  0
 43 44  1  0  0  0
 44 45  1  0  0  0
 45 46  1  0  0  0
 38 39  1  0  0  0
 39 40  2  0  0  0
 40 32  1  0  0  0
 40 35  1  0  0  0
  6  1  1  0  0  0
 16 11  1  0  0  0
 22 17  1  0  0  0
 29 41  1  0  0  0
  7 10  1  0  0  0
 25 26  1  0  0  0
M  END
> <minimizedAffinity>
-8.73753

> <CNNscore>
0.9182090163

> <CNNaffinity>
7.7068305016

> <CNN_VS>
7.0764813423

> <CNNaffinity_variance>
0.0285499692

$$$$
[H]OC([H])([H])C([H])([H])N1C([H])([H])C([H])([H])C([H])(c2c([H])c([H])c(C(=O)N([H])c3nc([H])c([H])c(Oc4c(OC([H])([H])C([H])([H])OC([H])([H])[H])c([H])c5c(c4[H])c([H])c([H])n5C(=O)N([H])C([H])([H])[H])c3[H])c([H])c2[H])C([H])([H])C1([H])[H]


 46 50  0  0  0  0  0  0  0  0999 V2000
   -2.0683   22.4901  -27.0210 C   0  0  0  0  0  0  0  0  0  0  0  0
   -1.5789   23.0560  -28.1733 C   0  0  0  0  0  0  0  0  0  0  0  0
   -0.2103   23.1963  -28.3268 C   0  0  0  0  0  0  0  0  0  0  0  0
    0.6272   22.7923  -27.3795 N   0  0  0  0  0  0  0  0  0  0  0  0
    0.1983   22.2275  -26.2242 C   0  0  0  0  0  0  0  0  0  0  0  0
   -1.1507   22.0838  -26.0608 C   0  0  0  0  0  0  0  0  0  0  0  0
    1.1440   21.8042  -25.2324 N   0  0  0  0  0  0  0  0  0  0  0  0
    0.7483   21.4983  -23.9209 C   0  0  0  0  0  0  0  0  0  0  0  0
   -0.4668   21.5921  -23.5862 O   0  0  0  0  0  0  0  0  0  0  0  0
    2.1295   21.7343  -25.5254 H   0  0  0  0  0  0  0  0  0  0  0  0
    1.6970   21.0698  -22.9110 C   0  0  0  0  0  0  0  0  0  0  0  0
    1.3626   20.9932  -21.5812 C   0  0  0  0  0  0  0  0  0  0  0  0
    2.2964   20.5751  -20.6488 C   0  0  0  0  0  0  0  0  0  0  0  0
    3.5922   20.2154  -20.9760 C   0  0  0  0  0  0  0  0  0  0  0  0
    3.9132   20.2977  -22.3159 C   0  0  0  0  0  0  0  0  0  0  0  0
    2.9939   20.7112  -23.2475 C   0  0  0  0  0  0  0  0  0  0  0  0
    4.5699   19.7721  -19.9510 C   0  0  0  0  0  0  0  0  0  0  0  0
    5.5362   18.7360  -20.4860 C   0  0  0  0  0  0  0  0  0  0  0  0
    6.2419   18.1116  -19.2993 C   0  0  0  0  0  0  0  0  0  0  0  0
    5.3373   17.3147  -18.4819 N   0  0  0  0  0  0  0  0  0  0  0  0
    3.9967   17.7919  -18.5217 C   0  0  0  0  0  0  0  0  0  0  0  0
    3.9132   19.3006  -18.6709 C   0  0  0  0  0  0  0  0  0  0  0  0
    5.5283   15.9182  -18.6651 C   0  0  0  0  0  0  0  0  0  0  0  0
    4.4972   15.2792  -19.5219 C   0  0  0  0  0  0  0  0  0  0  0  0
    4.8148   15.1528  -20.8548 O   0  0  0  0  0  0  0  0  0  0  0  0
    5.2756   14.2962  -21.0445 H   0  0  0  0  0  0  0  0  0  0  0  0
   -3.4080   22.3425  -26.8441 O   0  0  0  0  0  0  0  0  0  0  0  0
   -9.0747   24.5539  -20.2274 C   0  0  0  0  0  0  0  0  0  0  0  0
   -8.0094   23.6885  -20.6603 N   0  0  0  0  0  0  0  0  0  0  0  0
   -7.4462   23.8194  -21.9481 C   0  0  0  0  0  0  0  0  0  0  0  0
   -7.9160   24.7160  -22.6845 O   0  0  0  0  0  0  0  0  0  0  0  0
   -6.3938   22.9403  -22.3325 N   0  0  0  0  0  0  0  0  0  0  0  0
   -5.8610   21.9560  -21.5553 C   0  0  0  0  0  0  0  0  0  0  0  0
   -4.8783   21.3472  -22.2970 C   0  0  0  0  0  0  0  0  0  0  0  0
   -4.8164   21.9657  -23.5280 C   0  0  0  0  0  0  0  0  0  0  0  0
   -4.0353   21.7754  -24.6474 C   0  0  0  0  0  0  0  0  0  0  0  0
   -4.2086   22.5844  -25.7801 C   0  0  0  0  0  0  0  0  0  0  0  0
   -5.1627   23.5852  -25.7971 C   0  0  0  0  0  0  0  0  0  0  0  0
   -5.9488   23.7715  -24.6642 C   0  0  0  0  0  0  0  0  0  0  0  0
   -5.7742   22.9661  -23.5388 C   0  0  0  0  0  0  0  0  0  0  0  0
   -7.6621   22.9683  -20.0131 H   0  0  0  0  0  0  0  0  0  0  0  0
   -5.2494   24.3161  -26.9382 O   0  0  0  0  0  0  0  0  0  0  0  0
   -4.9301   25.6337  -27.1734 C   0  0  0  0  0  0  0  0  0  0  0  0
   -5.7444   26.6782  -26.4994 C   0  0  0  0  0  0  0  0  0  0  0  0
   -4.9836   27.6282  -25.8277 O   0  0  0  0  0  0  0  0  0  0  0  0
   -4.1304   27.1096  -24.8925 C   0  0  0  0  0  0  0  0  0  0  0  0
 28 29  1  0  0  0
 29 30  1  0  0  0
 30 31  2  0  0  0
 30 32  1  0  0  0
 32 33  1  0  0  0
 33 34  2  0  0  0
 34 35  1  0  0  0
 35 36  2  0  0  0
 36 37  1  0  0  0
 37 27  1  0  0  0
 27  1  1  0  0  0
  1  2  2  0  0  0
  2  3  1  0  0  0
  3  4  2  0  0  0
  4  5  1  0  0  0
  5  7  1  0  0  0
  7  8  1  0  0  0
  8  9  2  0  0  0
  8 11  1  0  0  0
 11 12  2  0  0  0
 12 13  1  0  0  0
 13 14  2  0  0  0
 14 15  1  0  0  0
 15 16  2  0  0  0
 14 17  1  0  0  0
 17 18  1  0  0  0
 18 19  1  0  0  0
 19 20  1  0  0  0
 20 23  1  0  0  0
 23 24  1  0  0  0
 24 25  1  0  0  0
 20 21  1  0  0  0
 21 22  1  0  0  0
  5  6  2  0  0  0
 37 38  2  0  0  0
 38 42  1  0  0  0
 42 43  1  0  0  0
 43 44  1  0  0  0
 44 45  1  0  0  0
 45 46  1  0  0  0
 38 39  1  0  0  0
 39 40  2  0  0  0
 40 32  1  0  0  0
 40 35  1  0  0  0
  6  1  1  0  0  0
 16 11  1  0  0  0
 22 17  1  0  0  0
 29 41  1  0  0  0
  7 10  1  0  0  0
 25 26  1  0  0  0
M  END
> <minimizedAffinity>
-7.68805

> <CNNscore>
0.9176965356

> <CNNaffinity>
7.5098009109

> <CNN_VS>
6.8917183876

> <CNNaffinity_variance>
0.0994302183

$$$$
[H]OC([H])([H])C([H])([H])N1C([H])([H])C([H])([H])C([H])(c2c([H])c([H])c(C(=O)N([H])c3nc([H])c([H])c(Oc4c(OC([H])([H])C([H])([H])OC([H])([H])[H])c([H])c5c(c4[H])c([H])c([H])n5C(=O)N([H])C([H])([H])[H])c3[H])c([H])c2[H])C([H])([H])C1([H])[H]


 46 50  0  0  0  0  0  0  0  0999 V2000
   -2.0456   22.8805  -27.4760 C   0  0  0  0  0  0  0  0  0  0  0  0
   -1.4089   23.3449  -28.6014 C   0  0  0  0  0  0  0  0  0  0  0  0
   -0.0357   23.2044  -28.7053 C   0  0  0  0  0  0  0  0  0  0  0  0
    0.6664   22.6293  -27.7365 N   0  0  0  0  0  0  0  0  0  0  0  0
    0.0889   22.1535  -26.6061 C   0  0  0  0  0  0  0  0  0  0  0  0
   -1.2663   22.2867  -26.4917 C   0  0  0  0  0  0  0  0  0  0  0  0
    0.8911   21.5370  -25.5894 N   0  0  0  0  0  0  0  0  0  0  0  0
    0.7429   21.8676  -24.2333 C   0  0  0  0  0  0  0  0  0  0  0  0
   -0.1131   22.7274  -23.8794 O   0  0  0  0  0  0  0  0  0  0  0  0
    1.5831   20.8389  -25.8988 H   0  0  0  0  0  0  0  0  0  0  0  0
    1.5495   21.2502  -23.1981 C   0  0  0  0  0  0  0  0  0  0  0  0
    1.0655   21.0248  -21.9329 C   0  0  0  0  0  0  0  0  0  0  0  0
    1.8665   20.4286  -20.9742 C   0  0  0  0  0  0  0  0  0  0  0  0
    3.1701   20.0288  -21.2112 C   0  0  0  0  0  0  0  0  0  0  0  0
    3.6423   20.2619  -22.4871 C   0  0  0  0  0  0  0  0  0  0  0  0
    2.8554   20.8525  -23.4441 C   0  0  0  0  0  0  0  0  0  0  0  0
    4.0031   19.3927  -20.1601 C   0  0  0  0  0  0  0  0  0  0  0  0
    5.4407   19.2062  -20.5983 C   0  0  0  0  0  0  0  0  0  0  0  0
    6.0993   18.2576  -19.6171 C   0  0  0  0  0  0  0  0  0  0  0  0
    5.5574   16.9089  -19.7121 N   0  0  0  0  0  0  0  0  0  0  0  0
    4.1972   16.8919  -20.1316 C   0  0  0  0  0  0  0  0  0  0  0  0
    3.4151   18.0976  -19.6416 C   0  0  0  0  0  0  0  0  0  0  0  0
    6.4441   16.0130  -20.3690 C   0  0  0  0  0  0  0  0  0  0  0  0
    5.7785   14.8020  -20.9131 C   0  0  0  0  0  0  0  0  0  0  0  0
    5.6708   13.7346  -20.0513 O   0  0  0  0  0  0  0  0  0  0  0  0
    4.8304   13.7672  -19.5271 H   0  0  0  0  0  0  0  0  0  0  0  0
   -3.3929   23.0078  -27.3478 O   0  0  0  0  0  0  0  0  0  0  0  0
   -8.4898   26.3704  -20.7525 C   0  0  0  0  0  0  0  0  0  0  0  0
   -7.7922   26.6282  -21.9847 N   0  0  0  0  0  0  0  0  0  0  0  0
   -7.0840   25.6016  -22.6460 C   0  0  0  0  0  0  0  0  0  0  0  0
   -7.0943   24.4697  -22.1115 O   0  0  0  0  0  0  0  0  0  0  0  0
   -6.4086   25.9039  -23.8627 N   0  0  0  0  0  0  0  0  0  0  0  0
   -6.3785   27.1236  -24.4695 C   0  0  0  0  0  0  0  0  0  0  0  0
   -5.6247   26.9860  -25.6094 C   0  0  0  0  0  0  0  0  0  0  0  0
   -5.1969   25.6776  -25.6925 C   0  0  0  0  0  0  0  0  0  0  0  0
   -4.4274   24.9869  -26.6036 C   0  0  0  0  0  0  0  0  0  0  0  0
   -4.1552   23.6240  -26.4146 C   0  0  0  0  0  0  0  0  0  0  0  0
   -4.6510   22.9480  -25.3148 C   0  0  0  0  0  0  0  0  0  0  0  0
   -5.4263   23.6513  -24.3980 C   0  0  0  0  0  0  0  0  0  0  0  0
   -5.6961   25.0064  -24.5885 C   0  0  0  0  0  0  0  0  0  0  0  0
   -7.8172   27.5780  -22.3789 H   0  0  0  0  0  0  0  0  0  0  0  0
   -4.3356   21.6304  -25.2245 O   0  0  0  0  0  0  0  0  0  0  0  0
   -4.1435   20.8388  -24.1155 C   0  0  0  0  0  0  0  0  0  0  0  0
   -3.0359   21.1936  -23.1905 C   0  0  0  0  0  0  0  0  0  0  0  0
   -3.4096   22.0870  -22.1933 O   0  0  0  0  0  0  0  0  0  0  0  0
   -4.4669   21.6719  -21.4308 C   0  0  0  0  0  0  0  0  0  0  0  0
 28 29  1  0  0  0
 29 30  1  0  0  0
 30 31  2  0  0  0
 30 32  1  0  0  0
 32 33  1  0  0  0
 33 34  2  0  0  0
 34 35  1  0  0  0
 35 36  2  0  0  0
 36 37  1  0  0  0
 37 27  1  0  0  0
 27  1  1  0  0  0
  1  2  2  0  0  0
  2  3  1  0  0  0
  3  4  2  0  0  0
  4  5  1  0  0  0
  5  7  1  0  0  0
  7  8  1  0  0  0
  8  9  2  0  0  0
  8 11  1  0  0  0
 11 12  2  0  0  0
 12 13  1  0  0  0
 13 14  2  0  0  0
 14 15  1  0  0  0
 15 16  2  0  0  0
 14 17  1  0  0  0
 17 18  1  0  0  0
 18 19  1  0  0  0
 19 20  1  0  0  0
 20 23  1  0  0  0
 23 24  1  0  0  0
 24 25  1  0  0  0
 20 21  1  0  0  0
 21 22  1  0  0  0
  5  6  2  0  0  0
 37 38  2  0  0  0
 38 42  1  0  0  0
 42 43  1  0  0  0
 43 44  1  0  0  0
 44 45  1  0  0  0
 45 46  1  0  0  0
 38 39  1  0  0  0
 39 40  2  0  0  0
 40 32  1  0  0  0
 40 35  1  0  0  0
  6  1  1  0  0  0
 16 11  1  0  0  0
 22 17  1  0  0  0
 29 41  1  0  0  0
  7 10  1  0  0  0
 25 26  1  0  0  0
M  END
> <minimizedAffinity>
-7.76158

> <CNNscore>
0.9147154093

> <CNNaffinity>
7.4447126389

> <CNN_VS>
6.8097934723

> <CNNaffinity_variance>
0.0328269228

$$$$
[H]OC([H])([H])C([H])([H])N1C([H])([H])C([H])([H])C([H])(c2c([H])c([H])c(C(=O)N([H])c3nc([H])c([H])c(Oc4c(OC([H])([H])C([H])([H])OC([H])([H])[H])c([H])c5c(c4[H])c([H])c([H])n5C(=O)N([H])C([H])([H])[H])c3[H])c([H])c2[H])C([H])([H])C1([H])[H]


 46 50  0  0  0  0  0  0  0  0999 V2000
   -2.2971   22.7346  -27.3223 C   0  0  0  0  0  0  0  0  0  0  0  0
   -1.7417   23.1344  -28.5136 C   0  0  0  0  0  0  0  0  0  0  0  0
   -0.3637   23.1443  -28.6450 C   0  0  0  0  0  0  0  0  0  0  0  0
    0.4201   22.7738  -27.6397 N   0  0  0  0  0  0  0  0  0  0  0  0
   -0.0752   22.3703  -26.4440 C   0  0  0  0  0  0  0  0  0  0  0  0
   -1.4342   22.3565  -26.3019 C   0  0  0  0  0  0  0  0  0  0  0  0
    0.8139   21.9764  -25.3897 N   0  0  0  0  0  0  0  0  0  0  0  0
    0.3405   21.6633  -24.1059 C   0  0  0  0  0  0  0  0  0  0  0  0
   -0.8962   21.7243  -23.8530 O   0  0  0  0  0  0  0  0  0  0  0  0
    1.8182   21.9331  -25.6164 H   0  0  0  0  0  0  0  0  0  0  0  0
    1.2315   21.2644  -23.0333 C   0  0  0  0  0  0  0  0  0  0  0  0
    2.5593   20.9901  -23.2514 C   0  0  0  0  0  0  0  0  0  0  0  0
    3.3777   20.6166  -22.1993 C   0  0  0  0  0  0  0  0  0  0  0  0
    2.9341   20.4959  -20.8940 C   0  0  0  0  0  0  0  0  0  0  0  0
    1.5977   20.7748  -20.6906 C   0  0  0  0  0  0  0  0  0  0  0  0
    0.7786   21.1458  -21.7276 C   0  0  0  0  0  0  0  0  0  0  0  0
    3.8382   20.0920  -19.7883 C   0  0  0  0  0  0  0  0  0  0  0  0
    3.0788   19.6185  -18.5666 C   0  0  0  0  0  0  0  0  0  0  0  0
    4.0569   19.5680  -17.4102 C   0  0  0  0  0  0  0  0  0  0  0  0
    4.5053   20.8961  -17.0144 N   0  0  0  0  0  0  0  0  0  0  0  0
    4.5146   21.8184  -18.0987 C   0  0  0  0  0  0  0  0  0  0  0  0
    4.8465   21.1619  -19.4269 C   0  0  0  0  0  0  0  0  0  0  0  0
    3.9033   21.3335  -15.8034 C   0  0  0  0  0  0  0  0  0  0  0  0
    2.8636   22.3768  -15.9933 C   0  0  0  0  0  0  0  0  0  0  0  0
    1.5591   21.9593  -15.8603 O   0  0  0  0  0  0  0  0  0  0  0  0
    1.2406   22.0370  -14.9251 H   0  0  0  0  0  0  0  0  0  0  0  0
   -3.6474   22.7175  -27.1661 O   0  0  0  0  0  0  0  0  0  0  0  0
   -8.8835   26.2689  -20.7822 C   0  0  0  0  0  0  0  0  0  0  0  0
   -8.2530   25.0831  -21.2995 N   0  0  0  0  0  0  0  0  0  0  0  0
   -7.4571   25.1339  -22.4643 C   0  0  0  0  0  0  0  0  0  0  0  0
   -7.3301   26.2500  -23.0168 O   0  0  0  0  0  0  0  0  0  0  0  0
   -6.8532   23.9347  -22.9390 N   0  0  0  0  0  0  0  0  0  0  0  0
   -6.9717   22.7063  -22.3612 C   0  0  0  0  0  0  0  0  0  0  0  0
   -6.2409   21.8309  -23.1267 C   0  0  0  0  0  0  0  0  0  0  0  0
   -5.6780   22.5326  -24.1720 C   0  0  0  0  0  0  0  0  0  0  0  0
   -4.8660   22.1751  -25.2266 C   0  0  0  0  0  0  0  0  0  0  0  0
   -4.4431   23.1377  -26.1552 C   0  0  0  0  0  0  0  0  0  0  0  0
   -4.8305   24.4594  -26.0323 C   0  0  0  0  0  0  0  0  0  0  0  0
   -5.6513   24.8136  -24.9659 C   0  0  0  0  0  0  0  0  0  0  0  0
   -6.0700   23.8548  -24.0435 C   0  0  0  0  0  0  0  0  0  0  0  0
   -8.3919   24.1921  -20.8047 H   0  0  0  0  0  0  0  0  0  0  0  0
   -4.3649   25.3146  -26.9786 O   0  0  0  0  0  0  0  0  0  0  0  0
   -4.9838   25.8190  -28.0992 C   0  0  0  0  0  0  0  0  0  0  0  0
   -4.3538   25.5578  -29.4195 C   0  0  0  0  0  0  0  0  0  0  0  0
   -4.6635   24.3088  -29.9453 O   0  0  0  0  0  0  0  0  0  0  0  0
   -5.8144   24.2770  -30.6842 C   0  0  0  0  0  0  0  0  0  0  0  0
 28 29  1  0  0  0
 29 30  1  0  0  0
 30 31  2  0  0  0
 30 32  1  0  0  0
 32 33  1  0  0  0
 33 34  2  0  0  0
 34 35  1  0  0  0
 35 36  2  0  0  0
 36 37  1  0  0  0
 37 27  1  0  0  0
 27  1  1  0  0  0
  1  2  2  0  0  0
  2  3  1  0  0  0
  3  4  2  0  0  0
  4  5  1  0  0  0
  5  7  1  0  0  0
  7  8  1  0  0  0
  8  9  2  0  0  0
  8 11  1  0  0  0
 11 12  2  0  0  0
 12 13  1  0  0  0
 13 14  2  0  0  0
 14 15  1  0  0  0
 15 16  2  0  0  0
 14 17  1  0  0  0
 17 18  1  0  0  0
 18 19  1  0  0  0
 19 20  1  0  0  0
 20 23  1  0  0  0
 23 24  1  0  0  0
 24 25  1  0  0  0
 20 21  1  0  0  0
 21 22  1  0  0  0
  5  6  2  0  0  0
 37 38  2  0  0  0
 38 42  1  0  0  0
 42 43  1  0  0  0
 43 44  1  0  0  0
 44 45  1  0  0  0
 45 46  1  0  0  0
 38 39  1  0  0  0
 39 40  2  0  0  0
 40 32  1  0  0  0
 40 35  1  0  0  0
  6  1  1  0  0  0
 16 11  1  0  0  0
 22 17  1  0  0  0
 29 41  1  0  0  0
  7 10  1  0  0  0
 25 26  1  0  0  0
M  END
> <minimizedAffinity>
-8.78845

> <CNNscore>
0.9050516486

> <CNNaffinity>
7.5154929161

> <CNN_VS>
6.8019094467

> <CNNaffinity_variance>
0.0215866752

$$$$
[H]OC([H])([H])C([H])([H])N1C([H])([H])C([H])([H])C([H])(c2c([H])c([H])c(C(=O)N([H])c3nc([H])c([H])c(Oc4c(OC([H])([H])C([H])([H])OC([H])([H])[H])c([H])c5c(c4[H])c([H])c([H])n5C(=O)N([H])C([H])([H])[H])c3[H])c([H])c2[H])C([H])([H])C1([H])[H]


 46 50  0  0  0  0  0  0  0  0999 V2000
   -2.2962   22.8053  -27.3037 C   0  0  0  0  0  0  0  0  0  0  0  0
   -1.7260   23.1270  -28.5115 C   0  0  0  0  0  0  0  0  0  0  0  0
   -0.3463   23.1627  -28.6174 C   0  0  0  0  0  0  0  0  0  0  0  0
    0.4253   22.8907  -27.5720 N   0  0  0  0  0  0  0  0  0  0  0  0
   -0.0847   22.5672  -26.3582 C   0  0  0  0  0  0  0  0  0  0  0  0
   -1.4456   22.5290  -26.2411 C   0  0  0  0  0  0  0  0  0  0  0  0
    0.7917   22.2784  -25.2602 N   0  0  0  0  0  0  0  0  0  0  0  0
    0.3319   21.6339  -24.1011 C   0  0  0  0  0  0  0  0  0  0  0  0
   -0.8808   21.2919  -24.0035 O   0  0  0  0  0  0  0  0  0  0  0  0
    1.7764   22.5655  -25.3595 H   0  0  0  0  0  0  0  0  0  0  0  0
    1.2101   21.3379  -22.9855 C   0  0  0  0  0  0  0  0  0  0  0  0
    2.5505   21.0932  -23.1567 C   0  0  0  0  0  0  0  0  0  0  0  0
    3.3558   20.8188  -22.0647 C   0  0  0  0  0  0  0  0  0  0  0  0
    2.8864   20.7722  -20.7637 C   0  0  0  0  0  0  0  0  0  0  0  0
    1.5375   21.0201  -20.6077 C   0  0  0  0  0  0  0  0  0  0  0  0
    0.7313   21.2931  -21.6845 C   0  0  0  0  0  0  0  0  0  0  0  0
    3.7770   20.4739  -19.6144 C   0  0  0  0  0  0  0  0  0  0  0  0
    3.5345   21.4006  -18.4415 C   0  0  0  0  0  0  0  0  0  0  0  0
    4.6998   21.2443  -17.4855 C   0  0  0  0  0  0  0  0  0  0  0  0
    5.9418   21.7570  -18.0480 N   0  0  0  0  0  0  0  0  0  0  0  0
    5.9845   21.6563  -19.4673 C   0  0  0  0  0  0  0  0  0  0  0  0
    5.2423   20.4408  -19.9937 C   0  0  0  0  0  0  0  0  0  0  0  0
    6.3206   23.0037  -17.4802 C   0  0  0  0  0  0  0  0  0  0  0  0
    6.5868   24.0642  -18.4852 C   0  0  0  0  0  0  0  0  0  0  0  0
    6.1185   25.3203  -18.1747 O   0  0  0  0  0  0  0  0  0  0  0  0
    6.7885   25.8499  -17.6720 H   0  0  0  0  0  0  0  0  0  0  0  0
   -3.6486   22.7651  -27.1721 O   0  0  0  0  0  0  0  0  0  0  0  0
   -9.0895   26.4091  -21.0157 C   0  0  0  0  0  0  0  0  0  0  0  0
   -8.4120   25.2243  -21.4724 N   0  0  0  0  0  0  0  0  0  0  0  0
   -7.6024   25.2516  -22.6284 C   0  0  0  0  0  0  0  0  0  0  0  0
   -7.5057   26.3462  -23.2280 O   0  0  0  0  0  0  0  0  0  0  0  0
   -6.9517   24.0543  -23.0423 N   0  0  0  0  0  0  0  0  0  0  0  0
   -7.0363   22.8490  -22.4124 C   0  0  0  0  0  0  0  0  0  0  0  0
   -6.2657   21.9668  -23.1295 C   0  0  0  0  0  0  0  0  0  0  0  0
   -5.7127   22.6411  -24.1978 C   0  0  0  0  0  0  0  0  0  0  0  0
   -4.8746   22.2662  -25.2256 C   0  0  0  0  0  0  0  0  0  0  0  0
   -4.4719   23.2013  -26.1905 C   0  0  0  0  0  0  0  0  0  0  0  0
   -4.9056   24.5130  -26.1308 C   0  0  0  0  0  0  0  0  0  0  0  0
   -5.7525   24.8849  -25.0912 C   0  0  0  0  0  0  0  0  0  0  0  0
   -6.1511   23.9534  -24.1326 C   0  0  0  0  0  0  0  0  0  0  0  0
   -8.5274   24.3514  -20.9405 H   0  0  0  0  0  0  0  0  0  0  0  0
   -4.4563   25.3416  -27.1081 O   0  0  0  0  0  0  0  0  0  0  0  0
   -5.0670   25.7554  -28.2696 C   0  0  0  0  0  0  0  0  0  0  0  0
   -4.3270   25.5788  -29.5462 C   0  0  0  0  0  0  0  0  0  0  0  0
   -5.0115   24.8140  -30.4838 O   0  0  0  0  0  0  0  0  0  0  0  0
   -5.4740   23.6180  -30.0074 C   0  0  0  0  0  0  0  0  0  0  0  0
 28 29  1  0  0  0
 29 30  1  0  0  0
 30 31  2  0  0  0
 30 32  1  0  0  0
 32 33  1  0  0  0
 33 34  2  0  0  0
 34 35  1  0  0  0
 35 36  2  0  0  0
 36 37  1  0  0  0
 37 27  1  0  0  0
 27  1  1  0  0  0
  1  2  2  0  0  0
  2  3  1  0  0  0
  3  4  2  0  0  0
  4  5  1  0  0  0
  5  7  1  0  0  0
  7  8  1  0  0  0
  8  9  2  0  0  0
  8 11  1  0  0  0
 11 12  2  0  0  0
 12 13  1  0  0  0
 13 14  2  0  0  0
 14 15  1  0  0  0
 15 16  2  0  0  0
 14 17  1  0  0  0
 17 18  1  0  0  0
 18 19  1  0  0  0
 19 20  1  0  0  0
 20 23  1  0  0  0
 23 24  1  0  0  0
 24 25  1  0  0  0
 20 21  1  0  0  0
 21 22  1  0  0  0
  5  6  2  0  0  0
 37 38  2  0  0  0
 38 42  1  0  0  0
 42 43  1  0  0  0
 43 44  1  0  0  0
 44 45  1  0  0  0
 45 46  1  0  0  0
 38 39  1  0  0  0
 39 40  2  0  0  0
 40 32  1  0  0  0
 40 35  1  0  0  0
  6  1  1  0  0  0
 16 11  1  0  0  0
 22 17  1  0  0  0
 29 41  1  0  0  0
  7 10  1  0  0  0
 25 26  1  0  0  0
M  END
> <minimizedAffinity>
-9.53965

> <CNNscore>
0.8724249005

> <CNNaffinity>
7.5093545914

> <CNN_VS>
6.5513477325

> <CNNaffinity_variance>
0.0453839414

$$$$
[H]OC([H])([H])C([H])([H])N1C([H])([H])C([H])([H])C([H])(c2c([H])c([H])c(C(=O)N([H])c3nc([H])c([H])c(Oc4c(OC([H])([H])C([H])([H])OC([H])([H])[H])c([H])c5c(c4[H])c([H])c([H])n5C(=O)N([H])C([H])([H])[H])c3[H])c([H])c2[H])C([H])([H])C1([H])[H]


 46 50  0  0  0  0  0  0  0  0999 V2000
   -2.5862   22.3759  -25.9395 C   0  0  0  0  0  0  0  0  0  0  0  0
   -1.7560   22.4983  -27.0273 C   0  0  0  0  0  0  0  0  0  0  0  0
   -0.3936   22.3204  -26.8587 C   0  0  0  0  0  0  0  0  0  0  0  0
    0.1145   22.0344  -25.6661 N   0  0  0  0  0  0  0  0  0  0  0  0
   -0.6587   21.9019  -24.5606 C   0  0  0  0  0  0  0  0  0  0  0  0
   -2.0054   22.0756  -24.7142 C   0  0  0  0  0  0  0  0  0  0  0  0
   -0.0617   21.5887  -23.2947 N   0  0  0  0  0  0  0  0  0  0  0  0
    1.2990   21.2625  -23.1831 C   0  0  0  0  0  0  0  0  0  0  0  0
    2.0326   21.2386  -24.2118 O   0  0  0  0  0  0  0  0  0  0  0  0
   -0.6768   21.6136  -22.4683 H   0  0  0  0  0  0  0  0  0  0  0  0
    1.9118   20.9439  -21.9077 C   0  0  0  0  0  0  0  0  0  0  0  0
    3.2314   20.5782  -21.8031 C   0  0  0  0  0  0  0  0  0  0  0  0
    3.7796   20.2862  -20.5660 C   0  0  0  0  0  0  0  0  0  0  0  0
    3.0635   20.3393  -19.3830 C   0  0  0  0  0  0  0  0  0  0  0  0
    1.7389   20.7082  -19.5042 C   0  0  0  0  0  0  0  0  0  0  0  0
    1.1867   20.9995  -20.7266 C   0  0  0  0  0  0  0  0  0  0  0  0
    3.6816   20.0189  -18.0721 C   0  0  0  0  0  0  0  0  0  0  0  0
    4.8579   19.0743  -18.2050 C   0  0  0  0  0  0  0  0  0  0  0  0
    5.1829   18.5498  -16.8210 C   0  0  0  0  0  0  0  0  0  0  0  0
    4.1325   17.6833  -16.3035 N   0  0  0  0  0  0  0  0  0  0  0  0
    2.8443   18.0220  -16.8056 C   0  0  0  0  0  0  0  0  0  0  0  0
    2.6824   19.5111  -17.0545 C   0  0  0  0  0  0  0  0  0  0  0  0
    4.4958   16.3096  -16.3391 C   0  0  0  0  0  0  0  0  0  0  0  0
    4.7288   15.7161  -14.9978 C   0  0  0  0  0  0  0  0  0  0  0  0
    4.4475   14.3746  -14.8750 O   0  0  0  0  0  0  0  0  0  0  0  0
    5.2355   13.8119  -15.0860 H   0  0  0  0  0  0  0  0  0  0  0  0
   -3.9276   22.5478  -26.0772 O   0  0  0  0  0  0  0  0  0  0  0  0
  -10.1327   26.2870  -20.7573 C   0  0  0  0  0  0  0  0  0  0  0  0
   -9.3878   25.1007  -21.0878 N   0  0  0  0  0  0  0  0  0  0  0  0
   -8.4430   25.1058  -22.1366 C   0  0  0  0  0  0  0  0  0  0  0  0
   -8.2889   26.1824  -22.7564 O   0  0  0  0  0  0  0  0  0  0  0  0
   -7.7298   23.9079  -22.4273 N   0  0  0  0  0  0  0  0  0  0  0  0
   -7.8742   22.7219  -21.7722 C   0  0  0  0  0  0  0  0  0  0  0  0
   -7.0093   21.8313  -22.3597 C   0  0  0  0  0  0  0  0  0  0  0  0
   -6.3389   22.4812  -23.3746 C   0  0  0  0  0  0  0  0  0  0  0  0
   -5.3760   22.0890  -24.2792 C   0  0  0  0  0  0  0  0  0  0  0  0
   -4.8712   23.0001  -25.2187 C   0  0  0  0  0  0  0  0  0  0  0  0
   -5.3271   24.3050  -25.2566 C   0  0  0  0  0  0  0  0  0  0  0  0
   -6.3002   24.6944  -24.3413 C   0  0  0  0  0  0  0  0  0  0  0  0
   -6.8003   23.7868  -23.4077 C   0  0  0  0  0  0  0  0  0  0  0  0
   -9.5553   24.2432  -20.5448 H   0  0  0  0  0  0  0  0  0  0  0  0
   -4.7730   25.1101  -26.1992 O   0  0  0  0  0  0  0  0  0  0  0  0
   -5.3712   25.8812  -27.1692 C   0  0  0  0  0  0  0  0  0  0  0  0
   -5.5758   25.2765  -28.5111 C   0  0  0  0  0  0  0  0  0  0  0  0
   -5.8520   26.2090  -29.5043 O   0  0  0  0  0  0  0  0  0  0  0  0
   -5.1387   26.0327  -30.6582 C   0  0  0  0  0  0  0  0  0  0  0  0
 28 29  1  0  0  0
 29 30  1  0  0  0
 30 31  2  0  0  0
 30 32  1  0  0  0
 32 33  1  0  0  0
 33 34  2  0  0  0
 34 35  1  0  0  0
 35 36  2  0  0  0
 36 37  1  0  0  0
 37 27  1  0  0  0
 27  1  1  0  0  0
  1  2  2  0  0  0
  2  3  1  0  0  0
  3  4  2  0  0  0
  4  5  1  0  0  0
  5  7  1  0  0  0
  7  8  1  0  0  0
  8  9  2  0  0  0
  8 11  1  0  0  0
 11 12  2  0  0  0
 12 13  1  0  0  0
 13 14  2  0  0  0
 14 15  1  0  0  0
 15 16  2  0  0  0
 14 17  1  0  0  0
 17 18  1  0  0  0
 18 19  1  0  0  0
 19 20  1  0  0  0
 20 23  1  0  0  0
 23 24  1  0  0  0
 24 25  1  0  0  0
 20 21  1  0  0  0
 21 22  1  0  0  0
  5  6  2  0  0  0
 37 38  2  0  0  0
 38 42  1  0  0  0
 42 43  1  0  0  0
 43 44  1  0  0  0
 44 45  1  0  0  0
 45 46  1  0  0  0
 38 39  1  0  0  0
 39 40  2  0  0  0
 40 32  1  0  0  0
 40 35  1  0  0  0
  6  1  1  0  0  0
 16 11  1  0  0  0
 22 17  1  0  0  0
 29 41  1  0  0  0
  7 10  1  0  0  0
 25 26  1  0  0  0
M  END
> <minimizedAffinity>
-7.42995

> <CNNscore>
0.2768499553

> <CNNaffinity>
6.7006044388

> <CNN_VS>
1.8550620079

> <CNNaffinity_variance>
0.1672628224

$$$$
[H]OC([H])([H])C([H])([H])N1C([H])([H])C([H])([H])C([H])(c2c([H])c([H])c(C(=O)N([H])c3nc([H])c([H])c(Oc4c(OC([H])([H])C([H])([H])OC([H])([H])[H])c([H])c5c(c4[H])c([H])c([H])n5C(=O)N([H])C([H])([H])[H])c3[H])c([H])c2[H])C([H])([H])C1([H])[H]


 46 50  0  0  0  0  0  0  0  0999 V2000
   -6.9082   20.1167  -19.0795 C   0  0  0  0  0  0  0  0  0  0  0  0
   -7.1923   19.2482  -18.0536 C   0  0  0  0  0  0  0  0  0  0  0  0
   -6.1667   18.8234  -17.2266 C   0  0  0  0  0  0  0  0  0  0  0  0
   -4.9215   19.2439  -17.4130 N   0  0  0  0  0  0  0  0  0  0  0  0
   -4.5863   20.1007  -18.4087 C   0  0  0  0  0  0  0  0  0  0  0  0
   -5.5901   20.5270  -19.2321 C   0  0  0  0  0  0  0  0  0  0  0  0
   -3.2264   20.5283  -18.5665 N   0  0  0  0  0  0  0  0  0  0  0  0
   -2.7059   21.6104  -17.8396 C   0  0  0  0  0  0  0  0  0  0  0  0
   -3.4378   22.2363  -17.0213 O   0  0  0  0  0  0  0  0  0  0  0  0
   -2.6464   20.0050  -19.2386 H   0  0  0  0  0  0  0  0  0  0  0  0
   -1.3324   22.0505  -17.9924 C   0  0  0  0  0  0  0  0  0  0  0  0
   -0.9604   22.9625  -18.9495 C   0  0  0  0  0  0  0  0  0  0  0  0
    0.3610   23.3601  -19.0597 C   0  0  0  0  0  0  0  0  0  0  0  0
    1.3710   22.8846  -18.2417 C   0  0  0  0  0  0  0  0  0  0  0  0
    0.9817   21.9689  -17.2851 C   0  0  0  0  0  0  0  0  0  0  0  0
   -0.3260   21.5688  -17.1683 C   0  0  0  0  0  0  0  0  0  0  0  0
    2.7791   23.3310  -18.3871 C   0  0  0  0  0  0  0  0  0  0  0  0
    3.7649   22.1944  -18.2149 C   0  0  0  0  0  0  0  0  0  0  0  0
    5.1406   22.8041  -18.0359 C   0  0  0  0  0  0  0  0  0  0  0  0
    5.2596   23.5256  -16.7761 N   0  0  0  0  0  0  0  0  0  0  0  0
    4.0210   24.0737  -16.3380 C   0  0  0  0  0  0  0  0  0  0  0  0
    3.1258   24.4989  -17.4883 C   0  0  0  0  0  0  0  0  0  0  0  0
    6.0240   22.8129  -15.8128 C   0  0  0  0  0  0  0  0  0  0  0  0
    7.3907   23.3574  -15.6096 C   0  0  0  0  0  0  0  0  0  0  0  0
    7.6512   24.5701  -16.2056 O   0  0  0  0  0  0  0  0  0  0  0  0
    7.4315   25.3294  -15.6080 H   0  0  0  0  0  0  0  0  0  0  0  0
   -7.8964   20.5477  -19.9074 O   0  0  0  0  0  0  0  0  0  0  0  0
  -11.6853   28.6423  -20.8587 C   0  0  0  0  0  0  0  0  0  0  0  0
  -10.7277   27.6949  -21.3654 N   0  0  0  0  0  0  0  0  0  0  0  0
  -10.5430   26.4439  -20.7380 C   0  0  0  0  0  0  0  0  0  0  0  0
  -11.2466   26.2048  -19.7306 O   0  0  0  0  0  0  0  0  0  0  0  0
   -9.5838   25.5387  -21.2751 N   0  0  0  0  0  0  0  0  0  0  0  0
   -8.8038   25.7687  -22.3684 C   0  0  0  0  0  0  0  0  0  0  0  0
   -8.0237   24.6524  -22.5465 C   0  0  0  0  0  0  0  0  0  0  0  0
   -8.3329   23.7433  -21.5566 C   0  0  0  0  0  0  0  0  0  0  0  0
   -7.8729   22.4808  -21.2503 C   0  0  0  0  0  0  0  0  0  0  0  0
   -8.3937   21.7827  -20.1508 C   0  0  0  0  0  0  0  0  0  0  0  0
   -9.3751   22.3443  -19.3548 C   0  0  0  0  0  0  0  0  0  0  0  0
   -9.8344   23.6197  -19.6687 C   0  0  0  0  0  0  0  0  0  0  0  0
   -9.3154   24.3117  -20.7629 C   0  0  0  0  0  0  0  0  0  0  0  0
  -10.1762   27.9445  -22.1970 H   0  0  0  0  0  0  0  0  0  0  0  0
   -9.8168   21.5870  -18.3179 O   0  0  0  0  0  0  0  0  0  0  0  0
  -11.0708   21.0833  -18.0591 C   0  0  0  0  0  0  0  0  0  0  0  0
  -11.9935   21.9037  -17.2321 C   0  0  0  0  0  0  0  0  0  0  0  0
  -13.2005   21.2726  -16.9545 O   0  0  0  0  0  0  0  0  0  0  0  0
  -13.0824   20.1310  -16.2101 C   0  0  0  0  0  0  0  0  0  0  0  0
 28 29  1  0  0  0
 29 30  1  0  0  0
 30 31  2  0  0  0
 30 32  1  0  0  0
 32 33  1  0  0  0
 33 34  2  0  0  0
 34 35  1  0  0  0
 35 36  2  0  0  0
 36 37  1  0  0  0
 37 27  1  0  0  0
 27  1  1  0  0  0
  1  2  2  0  0  0
  2  3  1  0  0  0
  3  4  2  0  0  0
  4  5  1  0  0  0
  5  7  1  0  0  0
  7  8  1  0  0  0
  8  9  2  0  0  0
  8 11  1  0  0  0
 11 12  2  0  0  0
 12 13  1  0  0  0
 13 14  2  0  0  0
 14 15  1  0  0  0
 15 16  2  0  0  0
 14 17  1  0  0  0
 17 18  1  0  0  0
 18 19  1  0  0  0
 19 20  1  0  0  0
 20 23  1  0  0  0
 23 24  1  0  0  0
 24 25  1  0  0  0
 20 21  1  0  0  0
 21 22  1  0  0  0
  5  6  2  0  0  0
 37 38  2  0  0  0
 38 42  1  0  0  0
 42 43  1  0  0  0
 43 44  1  0  0  0
 44 45  1  0  0  0
 45 46  1  0  0  0
 38 39  1  0  0  0
 39 40  2  0  0  0
 40 32  1  0  0  0
 40 35  1  0  0  0
  6  1  1  0  0  0
 16 11  1  0  0  0
 22 17  1  0  0  0
 29 41  1  0  0  0
  7 10  1  0  0  0
 25 26  1  0  0  0
M  END
> <minimizedAffinity>
-7.25385

> <CNNscore>
0.2558211982

> <CNNaffinity>
5.6954593658

> <CNN_VS>
1.4570192099

> <CNNaffinity_variance>
0.1114478856

$$$$
[H]OC([H])([H])C([H])([H])N1C([H])([H])C([H])([H])C([H])(c2c([H])c([H])c(C(=O)N([H])c3nc([H])c([H])c(Oc4c(OC([H])([H])C([H])([H])OC([H])([H])[H])c([H])c5c(c4[H])c([H])c([H])n5C(=O)N([H])C([H])([H])[H])c3[H])c([H])c2[H])C([H])([H])C1([H])[H]


 46 50  0  0  0  0  0  0  0  0999 V2000
    0.8519   20.2048  -21.3423 C   0  0  0  0  0  0  0  0  0  0  0  0
    2.1672   20.1034  -20.9585 C   0  0  0  0  0  0  0  0  0  0  0  0
    2.6306   18.9016  -20.4514 C   0  0  0  0  0  0  0  0  0  0  0  0
    1.8234   17.8543  -20.3338 N   0  0  0  0  0  0  0  0  0  0  0  0
    0.5182   17.8995  -20.6976 C   0  0  0  0  0  0  0  0  0  0  0  0
    0.0489   19.0808  -21.1994 C   0  0  0  0  0  0  0  0  0  0  0  0
   -0.3123   16.7391  -20.5539 N   0  0  0  0  0  0  0  0  0  0  0  0
   -1.0436   16.4979  -19.3804 C   0  0  0  0  0  0  0  0  0  0  0  0
   -0.9817   17.3115  -18.4152 O   0  0  0  0  0  0  0  0  0  0  0  0
   -0.3489   16.0883  -21.3520 H   0  0  0  0  0  0  0  0  0  0  0  0
   -1.8858   15.3274  -19.2254 C   0  0  0  0  0  0  0  0  0  0  0  0
   -1.4224   14.1643  -18.6609 C   0  0  0  0  0  0  0  0  0  0  0  0
   -2.2600   13.0704  -18.5271 C   0  0  0  0  0  0  0  0  0  0  0  0
   -3.5815   13.0672  -18.9380 C   0  0  0  0  0  0  0  0  0  0  0  0
   -4.0327   14.2429  -19.5033 C   0  0  0  0  0  0  0  0  0  0  0  0
   -3.2094   15.3326  -19.6401 C   0  0  0  0  0  0  0  0  0  0  0  0
   -4.4532   11.8761  -18.7808 C   0  0  0  0  0  0  0  0  0  0  0  0
   -5.6708   11.9302  -19.6796 C   0  0  0  0  0  0  0  0  0  0  0  0
   -6.6430   10.8722  -19.1982 C   0  0  0  0  0  0  0  0  0  0  0  0
   -7.1961   11.1922  -17.8893 N   0  0  0  0  0  0  0  0  0  0  0  0
   -6.3019   11.9560  -17.0871 C   0  0  0  0  0  0  0  0  0  0  0  0
   -4.8445   11.6144  -17.3419 C   0  0  0  0  0  0  0  0  0  0  0  0
   -8.5405   11.6472  -17.9648 C   0  0  0  0  0  0  0  0  0  0  0  0
   -8.9653   12.4593  -16.7961 C   0  0  0  0  0  0  0  0  0  0  0  0
   -9.7531   13.5524  -17.0759 O   0  0  0  0  0  0  0  0  0  0  0  0
  -10.7173   13.3240  -17.0669 H   0  0  0  0  0  0  0  0  0  0  0  0
    0.3708   21.3741  -21.8414 O   0  0  0  0  0  0  0  0  0  0  0  0
   -4.5426   23.3119  -29.1139 C   0  0  0  0  0  0  0  0  0  0  0  0
   -3.2289   23.0667  -28.5795 N   0  0  0  0  0  0  0  0  0  0  0  0
   -3.0446   22.7808  -27.2095 C   0  0  0  0  0  0  0  0  0  0  0  0
   -4.0704   22.7521  -26.4927 O   0  0  0  0  0  0  0  0  0  0  0  0
   -1.7259   22.5451  -26.7261 N   0  0  0  0  0  0  0  0  0  0  0  0
   -0.5907   22.5689  -27.4794 C   0  0  0  0  0  0  0  0  0  0  0  0
    0.4567   22.2926  -26.6350 C   0  0  0  0  0  0  0  0  0  0  0  0
   -0.0469   22.1011  -25.3656 C   0  0  0  0  0  0  0  0  0  0  0  0
    0.5310   21.8039  -24.1502 C   0  0  0  0  0  0  0  0  0  0  0  0
   -0.2621   21.6663  -23.0015 C   0  0  0  0  0  0  0  0  0  0  0  0
   -1.6343   21.8255  -23.0643 C   0  0  0  0  0  0  0  0  0  0  0  0
   -2.2115   22.1266  -24.2941 C   0  0  0  0  0  0  0  0  0  0  0  0
   -1.4208   22.2624  -25.4351 C   0  0  0  0  0  0  0  0  0  0  0  0
   -2.4208   23.1032  -29.2150 H   0  0  0  0  0  0  0  0  0  0  0  0
   -2.3134   21.6677  -21.8991 O   0  0  0  0  0  0  0  0  0  0  0  0
   -3.6561   21.8030  -21.6303 C   0  0  0  0  0  0  0  0  0  0  0  0
   -4.1546   23.1454  -21.2331 C   0  0  0  0  0  0  0  0  0  0  0  0
   -4.1996   23.3364  -19.8569 O   0  0  0  0  0  0  0  0  0  0  0  0
   -4.4918   22.2087  -19.1398 C   0  0  0  0  0  0  0  0  0  0  0  0
 28 29  1  0  0  0
 29 30  1  0  0  0
 30 31  2  0  0  0
 30 32  1  0  0  0
 32 33  1  0  0  0
 33 34  2  0  0  0
 34 35  1  0  0  0
 35 36  2  0  0  0
 36 37  1  0  0  0
 37 27  1  0  0  0
 27  1  1  0  0  0
  1  2  2  0  0  0
  2  3  1  0  0  0
  3  4  2  0  0  0
  4  5  1  0  0  0
  5  7  1  0  0  0
  7  8  1  0  0  0
  8  9  2  0  0  0
  8 11  1  0  0  0
 11 12  2  0  0  0
 12 13  1  0  0  0
 13 14  2  0  0  0
 14 15  1  0  0  0
 15 16  2  0  0  0
 14 17  1  0  0  0
 17 18  1  0  0  0
 18 19  1  0  0  0
 19 20  1  0  0  0
 20 23  1  0  0  0
 23 24  1  0  0  0
 24 25  1  0  0  0
 20 21  1  0  0  0
 21 22  1  0  0  0
  5  6  2  0  0  0
 37 38  2  0  0  0
 38 42  1  0  0  0
 42 43  1  0  0  0
 43 44  1  0  0  0
 44 45  1  0  0  0
 45 46  1  0  0  0
 38 39  1  0  0  0
 39 40  2  0  0  0
 40 32  1  0  0  0
 40 35  1  0  0  0
  6  1  1  0  0  0
 16 11  1  0  0  0
 22 17  1  0  0  0
 29 41  1  0  0  0
  7 10  1  0  0  0
 25 26  1  0  0  0
M  END
> <minimizedAffinity>
-7.36365

> <CNNscore>
0.2468579561

> <CNNaffinity>
6.2268228531

> <CNN_VS>
1.5371407270

> <CNNaffinity_variance>
0.0751378834

$$$$
[H]OC([H])([H])C([H])([H])N1C([H])([H])C([H])([H])C([H])(c2c([H])c([H])c(C(=O)N([H])c3nc([H])c([H])c(Oc4c(OC([H])([H])C([H])([H])OC([H])([H])[H])c([H])c5c(c4[H])c([H])c([H])n5C(=O)N([H])C([H])([H])[H])c3[H])c([H])c2[H])C([H])([H])C1([H])[H]


 46 50  0  0  0  0  0  0  0  0999 V2000
   -3.3167   22.2142  -25.8681 C   0  0  0  0  0  0  0  0  0  0  0  0
   -3.0002   22.5553  -27.1607 C   0  0  0  0  0  0  0  0  0  0  0  0
   -1.6704   22.7192  -27.5082 C   0  0  0  0  0  0  0  0  0  0  0  0
   -0.7055   22.5509  -26.6122 N   0  0  0  0  0  0  0  0  0  0  0  0
   -0.9618   22.2139  -25.3243 C   0  0  0  0  0  0  0  0  0  0  0  0
   -2.2710   22.0496  -24.9690 C   0  0  0  0  0  0  0  0  0  0  0  0
    0.1165   22.0402  -24.3948 N   0  0  0  0  0  0  0  0  0  0  0  0
   -0.0715   21.3986  -23.1606 C   0  0  0  0  0  0  0  0  0  0  0  0
   -1.2117   20.9562  -22.8423 O   0  0  0  0  0  0  0  0  0  0  0  0
    1.0380   22.4081  -24.6732 H   0  0  0  0  0  0  0  0  0  0  0  0
    1.0125   21.2185  -22.2139 C   0  0  0  0  0  0  0  0  0  0  0  0
    2.2916   20.9223  -22.6166 C   0  0  0  0  0  0  0  0  0  0  0  0
    3.2993   20.7625  -21.6812 C   0  0  0  0  0  0  0  0  0  0  0  0
    3.0999   20.8853  -20.3172 C   0  0  0  0  0  0  0  0  0  0  0  0
    1.8095   21.1831  -19.9280 C   0  0  0  0  0  0  0  0  0  0  0  0
    0.8039   21.3433  -20.8483 C   0  0  0  0  0  0  0  0  0  0  0  0
    4.2028   20.7067  -19.3400 C   0  0  0  0  0  0  0  0  0  0  0  0
    3.7373   20.8738  -17.9086 C   0  0  0  0  0  0  0  0  0  0  0  0
    4.9705   21.0181  -17.0397 C   0  0  0  0  0  0  0  0  0  0  0  0
    5.6769   22.2661  -17.2951 N   0  0  0  0  0  0  0  0  0  0  0  0
    5.5203   22.7215  -18.6347 C   0  0  0  0  0  0  0  0  0  0  0  0
    5.4015   21.5837  -19.6331 C   0  0  0  0  0  0  0  0  0  0  0  0
    5.4780   23.2231  -16.2632 C   0  0  0  0  0  0  0  0  0  0  0  0
    5.2321   22.6223  -14.9275 C   0  0  0  0  0  0  0  0  0  0  0  0
    6.2899   22.6548  -14.0479 O   0  0  0  0  0  0  0  0  0  0  0  0
    6.2893   23.4811  -13.5007 H   0  0  0  0  0  0  0  0  0  0  0  0
   -4.6149   22.0492  -25.5000 O   0  0  0  0  0  0  0  0  0  0  0  0
  -10.1580   27.0847  -20.5299 C   0  0  0  0  0  0  0  0  0  0  0  0
   -9.1703   26.0379  -20.5440 N   0  0  0  0  0  0  0  0  0  0  0  0
   -8.5770   25.6164  -21.7535 C   0  0  0  0  0  0  0  0  0  0  0  0
   -8.9500   26.1933  -22.7999 O   0  0  0  0  0  0  0  0  0  0  0  0
   -7.6044   24.5768  -21.7182 N   0  0  0  0  0  0  0  0  0  0  0  0
   -7.1773   23.9301  -20.5975 C   0  0  0  0  0  0  0  0  0  0  0  0
   -6.2433   23.0064  -20.9988 C   0  0  0  0  0  0  0  0  0  0  0  0
   -6.1049   23.0946  -22.3680 C   0  0  0  0  0  0  0  0  0  0  0  0
   -5.3270   22.4258  -23.2882 C   0  0  0  0  0  0  0  0  0  0  0  0
   -5.4067   22.7456  -24.6516 C   0  0  0  0  0  0  0  0  0  0  0  0
   -6.2637   23.7344  -25.0988 C   0  0  0  0  0  0  0  0  0  0  0  0
   -7.0473   24.4052  -24.1649 C   0  0  0  0  0  0  0  0  0  0  0  0
   -6.9658   24.0857  -22.8095 C   0  0  0  0  0  0  0  0  0  0  0  0
   -8.9015   25.5984  -19.6537 H   0  0  0  0  0  0  0  0  0  0  0  0
   -6.2643   23.9724  -26.4356 O   0  0  0  0  0  0  0  0  0  0  0  0
   -6.1764   25.1602  -27.1246 C   0  0  0  0  0  0  0  0  0  0  0  0
   -4.9207   25.9453  -27.0009 C   0  0  0  0  0  0  0  0  0  0  0  0
   -5.0571   27.0934  -26.2291 O   0  0  0  0  0  0  0  0  0  0  0  0
   -4.4349   27.0328  -25.0124 C   0  0  0  0  0  0  0  0  0  0  0  0
 28 29  1  0  0  0
 29 30  1  0  0  0
 30 31  2  0  0  0
 30 32  1  0  0  0
 32 33  1  0  0  0
 33 34  2  0  0  0
 34 35  1  0  0  0
 35 36  2  0  0  0
 36 37  1  0  0  0
 37 27  1  0  0  0
 27  1  1  0  0  0
  1  2  2  0  0  0
  2  3  1  0  0  0
  3  4  2  0  0  0
  4  5  1  0  0  0
  5  7  1  0  0  0
  7  8  1  0  0  0
  8  9  2  0  0  0
  8 11  1  0  0  0
 11 12  2  0  0  0
 12 13  1  0  0  0
 13 14  2  0  0  0
 14 15  1  0  0  0
 15 16  2  0  0  0
 14 17  1  0  0  0
 17 18  1  0  0  0
 18 19  1  0  0  0
 19 20  1  0  0  0
 20 23  1  0  0  0
 23 24  1  0  0  0
 24 25  1  0  0  0
 20 21  1  0  0  0
 21 22  1  0  0  0
  5  6  2  0  0  0
 37 38  2  0  0  0
 38 42  1  0  0  0
 42 43  1  0  0  0
 43 44  1  0  0  0
 44 45  1  0  0  0
 45 46  1  0  0  0
 38 39  1  0  0  0
 39 40  2  0  0  0
 40 32  1  0  0  0
 40 35  1  0  0  0
  6  1  1  0  0  0
 16 11  1  0  0  0
 22 17  1  0  0  0
 29 41  1  0  0  0
  7 10  1  0  0  0
 25 26  1  0  0  0
M  END
> <minimizedAffinity>
-7.95379

> <CNNscore>
0.2307289392

> <CNNaffinity>
6.6135568619

> <CNN_VS>
1.5259389877

> <CNNaffinity_variance>
0.0915102959

$$$$
[H]OC(C([H])([H])[H])(C([H])([H])[H])C([H])([H])n1nc([H])c(-c2nc(-c3nn(-c4c(Cl)c(OC([H])([H])[H])c([H])c(OC([H])([H])[H])c4Cl)c(=O)c([H])c3[H])c(N([H])[H])nc2[H])c1[H]


 39 42  0  0  0  0  0  0  0  0999 V2000
   -2.2563   22.8511  -26.5820 C   0  0  0  0  0  0  0  0  0  0  0  0
   -1.8019   22.4414  -25.3378 N   0  0  0  0  0  0  0  0  0  0  0  0
   -0.5281   22.1228  -25.1283 C   0  0  0  0  0  0  0  0  0  0  0  0
    0.3554   22.2067  -26.1884 C   0  0  0  0  0  0  0  0  0  0  0  0
   -0.0413   22.5957  -27.3988 N   0  0  0  0  0  0  0  0  0  0  0  0
   -1.3696   22.9246  -27.6032 C   0  0  0  0  0  0  0  0  0  0  0  0
   -1.7214   23.3301  -28.9159 N   0  0  0  0  0  0  0  0  0  0  0  0
   -2.0325   22.6477  -29.6580 H   0  0  0  0  0  0  0  0  0  0  0  0
   -1.6801   24.3382  -29.2277 H   0  0  0  0  0  0  0  0  0  0  0  0
   -5.6544   23.5946  -25.4397 N   0  0  0  0  0  0  0  0  0  0  0  0
   -4.3767   23.3089  -25.4940 N   0  0  0  0  0  0  0  0  0  0  0  0
   -3.6745   23.1707  -26.6751 C   0  0  0  0  0  0  0  0  0  0  0  0
   -4.4010   23.3521  -27.8029 C   0  0  0  0  0  0  0  0  0  0  0  0
   -5.7829   23.6619  -27.7883 C   0  0  0  0  0  0  0  0  0  0  0  0
   -6.3737   23.7743  -26.5598 C   0  0  0  0  0  0  0  0  0  0  0  0
   -7.6175   24.0513  -26.4360 O   0  0  0  0  0  0  0  0  0  0  0  0
   -7.3650   22.7133  -22.2378 C   0  0  0  0  0  0  0  0  0  0  0  0
   -7.6403   23.9859  -21.7427 C   0  0  0  0  0  0  0  0  0  0  0  0
   -7.2769   25.1216  -22.4364 C   0  0  0  0  0  0  0  0  0  0  0  0
   -6.6340   24.9576  -23.6326 C   0  0  0  0  0  0  0  0  0  0  0  0
   -6.1610   26.3927  -24.5347 Cl  0  0  0  0  0  0  0  0  0  0  0  0
   -6.3333   23.7261  -24.1756 C   0  0  0  0  0  0  0  0  0  0  0  0
   -6.7153   22.6180  -23.4477 C   0  0  0  0  0  0  0  0  0  0  0  0
   -6.3504   21.0254  -24.1051 Cl  0  0  0  0  0  0  0  0  0  0  0  0
   -8.5343   21.5303  -20.4302 C   0  0  0  0  0  0  0  0  0  0  0  0
   -7.7122   21.5554  -21.5740 O   0  0  0  0  0  0  0  0  0  0  0  0
   -7.5670   26.3941  -21.9135 O   0  0  0  0  0  0  0  0  0  0  0  0
   -8.4256   26.5623  -20.8200 C   0  0  0  0  0  0  0  0  0  0  0  0
   -0.0448   21.6916  -23.8236 C   0  0  0  0  0  0  0  0  0  0  0  0
    1.2466   21.4104  -23.4519 C   0  0  0  0  0  0  0  0  0  0  0  0
    1.2128   21.0540  -22.1606 N   0  0  0  0  0  0  0  0  0  0  0  0
   -0.0128   21.0897  -21.6872 N   0  0  0  0  0  0  0  0  0  0  0  0
   -0.8064   21.4839  -22.7071 C   0  0  0  0  0  0  0  0  0  0  0  0
   -0.4393   20.7735  -20.3471 C   0  0  0  0  0  0  0  0  0  0  0  0
   -0.0364   21.8187  -19.3416 C   0  0  0  0  0  0  0  0  0  0  0  0
   -0.7015   23.1397  -19.5670 C   0  0  0  0  0  0  0  0  0  0  0  0
   -0.2655   21.3605  -17.9131 C   0  0  0  0  0  0  0  0  0  0  0  0
    1.3461   22.0058  -19.4777 O   0  0  0  0  0  0  0  0  0  0  0  0
    1.5459   22.5729  -20.2475 H   0  0  0  0  0  0  0  0  0  0  0  0
 25 26  1  0  0  0
 26 17  1  0  0  0
 17 18  2  0  0  0
 18 19  1  0  0  0
 19 27  1  0  0  0
 27 28  1  0  0  0
 19 20  2  0  0  0
 20 21  1  0  0  0
 20 22  1  0  0  0
 22 23  2  0  0  0
 23 24  1  0  0  0
 22 10  1  0  0  0
 10 11  1  0  0  0
 11 12  2  0  0  0
 12 13  1  0  0  0
 13 14  2  0  0  0
 14 15  1  0  0  0
 15 16  2  0  0  0
 12  1  1  0  0  0
  1  2  2  0  0  0
  2  3  1  0  0  0
  3  4  2  0  0  0
  4  5  1  0  0  0
  5  6  2  0  0  0
  6  7  1  0  0  0
  3 29  1  0  0  0
 29 30  1  0  0  0
 30 31  2  0  0  0
 31 32  1  0  0  0
 32 34  1  0  0  0
 34 35  1  0  0  0
 35 36  1  0  0  0
 35 37  1  0  0  0
 35 38  1  0  0  0
 32 33  1  0  0  0
 23 17  1  0  0  0
 15 10  1  0  0  0
  6  1  1  0  0  0
 33 29  2  0  0  0
  7  8  1  0  0  0
  7  9  1  0  0  0
 38 39  1  0  0  0
M  END
> <minimizedAffinity>
-9.17869

> <CNNscore>
0.7587966919

> <CNNaffinity>
7.8288125992

> <CNN_VS>
5.9404768944

> <CNNaffinity_variance>
0.1695156842

$$$$
[H]OC(C([H])([H])[H])(C([H])([H])[H])C([H])([H])n1nc([H])c(-c2nc(-c3nn(-c4c(Cl)c(OC([H])([H])[H])c([H])c(OC([H])([H])[H])c4Cl)c(=O)c([H])c3[H])c(N([H])[H])nc2[H])c1[H]


 39 42  0  0  0  0  0  0  0  0999 V2000
   -2.2515   22.8740  -26.5657 C   0  0  0  0  0  0  0  0  0  0  0  0
   -1.8009   22.4587  -25.3220 N   0  0  0  0  0  0  0  0  0  0  0  0
   -0.5279   22.1385  -25.1101 C   0  0  0  0  0  0  0  0  0  0  0  0
    0.3588   22.2268  -26.1672 C   0  0  0  0  0  0  0  0  0  0  0  0
   -0.0342   22.6214  -27.3770 N   0  0  0  0  0  0  0  0  0  0  0  0
   -1.3617   22.9517  -27.5839 C   0  0  0  0  0  0  0  0  0  0  0  0
   -1.7094   23.3632  -28.8958 N   0  0  0  0  0  0  0  0  0  0  0  0
   -2.0186   22.6842  -29.6419 H   0  0  0  0  0  0  0  0  0  0  0  0
   -1.6668   24.3726  -29.2030 H   0  0  0  0  0  0  0  0  0  0  0  0
   -5.6560   23.5989  -25.4306 N   0  0  0  0  0  0  0  0  0  0  0  0
   -4.3779   23.3144  -25.4823 N   0  0  0  0  0  0  0  0  0  0  0  0
   -3.6692   23.1946  -26.6616 C   0  0  0  0  0  0  0  0  0  0  0  0
   -4.3897   23.3932  -27.7904 C   0  0  0  0  0  0  0  0  0  0  0  0
   -5.7717   23.7023  -27.7785 C   0  0  0  0  0  0  0  0  0  0  0  0
   -6.3693   23.7956  -26.5517 C   0  0  0  0  0  0  0  0  0  0  0  0
   -7.6139   24.0703  -26.4304 O   0  0  0  0  0  0  0  0  0  0  0  0
   -7.3158   25.0782  -22.4287 C   0  0  0  0  0  0  0  0  0  0  0  0
   -7.6624   23.9194  -21.7378 C   0  0  0  0  0  0  0  0  0  0  0  0
   -7.3632   22.6683  -22.2363 C   0  0  0  0  0  0  0  0  0  0  0  0
   -6.7116   22.6014  -23.4372 C   0  0  0  0  0  0  0  0  0  0  0  0
   -6.3198   21.0157  -24.0922 Cl  0  0  0  0  0  0  0  0  0  0  0  0
   -6.3419   23.7107  -24.1683 C   0  0  0  0  0  0  0  0  0  0  0  0
   -6.6613   24.9411  -23.6319 C   0  0  0  0  0  0  0  0  0  0  0  0
   -6.2074   26.3842  -24.5336 Cl  0  0  0  0  0  0  0  0  0  0  0  0
   -8.3299   26.5976  -20.7862 C   0  0  0  0  0  0  0  0  0  0  0  0
   -7.5977   26.3455  -21.9631 O   0  0  0  0  0  0  0  0  0  0  0  0
   -7.7247   21.5148  -21.5183 O   0  0  0  0  0  0  0  0  0  0  0  0
   -8.6185   21.5680  -20.4414 C   0  0  0  0  0  0  0  0  0  0  0  0
   -0.0486   21.7014  -23.8059 C   0  0  0  0  0  0  0  0  0  0  0  0
    1.2415   21.4179  -23.4316 C   0  0  0  0  0  0  0  0  0  0  0  0
    1.2037   21.0558  -22.1421 N   0  0  0  0  0  0  0  0  0  0  0  0
   -0.0232   21.0900  -21.6721 N   0  0  0  0  0  0  0  0  0  0  0  0
   -0.8137   21.4891  -22.6926 C   0  0  0  0  0  0  0  0  0  0  0  0
   -0.4539   20.7680  -20.3347 C   0  0  0  0  0  0  0  0  0  0  0  0
   -0.0313   21.7958  -19.3194 C   0  0  0  0  0  0  0  0  0  0  0  0
   -0.7384   23.1047  -19.4772 C   0  0  0  0  0  0  0  0  0  0  0  0
   -0.1834   21.2934  -17.8954 C   0  0  0  0  0  0  0  0  0  0  0  0
    1.3385   22.0223  -19.5122 O   0  0  0  0  0  0  0  0  0  0  0  0
    1.4889   22.6149  -20.2740 H   0  0  0  0  0  0  0  0  0  0  0  0
 25 26  1  0  0  0
 26 17  1  0  0  0
 17 18  2  0  0  0
 18 19  1  0  0  0
 19 27  1  0  0  0
 27 28  1  0  0  0
 19 20  2  0  0  0
 20 21  1  0  0  0
 20 22  1  0  0  0
 22 23  2  0  0  0
 23 24  1  0  0  0
 22 10  1  0  0  0
 10 11  1  0  0  0
 11 12  2  0  0  0
 12 13  1  0  0  0
 13 14  2  0  0  0
 14 15  1  0  0  0
 15 16  2  0  0  0
 12  1  1  0  0  0
  1  2  2  0  0  0
  2  3  1  0  0  0
  3  4  2  0  0  0
  4  5  1  0  0  0
  5  6  2  0  0  0
  6  7  1  0  0  0
  3 29  1  0  0  0
 29 30  1  0  0  0
 30 31  2  0  0  0
 31 32  1  0  0  0
 32 34  1  0  0  0
 34 35  1  0  0  0
 35 36  1  0  0  0
 35 37  1  0  0  0
 35 38  1  0  0  0
 32 33  1  0  0  0
 23 17  1  0  0  0
 15 10  1  0  0  0
  6  1  1  0  0  0
 33 29  2  0  0  0
  7  8  1  0  0  0
  7  9  1  0  0  0
 38 39  1  0  0  0
M  END
> <minimizedAffinity>
-9.20154

> <CNNscore>
0.7581857443

> <CNNaffinity>
7.8251786232

> <CNN_VS>
5.9329390526

> <CNNaffinity_variance>
0.1684617251

$$$$
[H]OC(C([H])([H])[H])(C([H])([H])[H])C([H])([H])n1nc([H])c(-c2nc(-c3nn(-c4c(Cl)c(OC([H])([H])[H])c([H])c(OC([H])([H])[H])c4Cl)c(=O)c([H])c3[H])c(N([H])[H])nc2[H])c1[H]


 39 42  0  0  0  0  0  0  0  0999 V2000
   -2.0208   22.7443  -25.9851 C   0  0  0  0  0  0  0  0  0  0  0  0
   -1.7148   22.3842  -24.6816 N   0  0  0  0  0  0  0  0  0  0  0  0
   -0.4769   22.0649  -24.3161 C   0  0  0  0  0  0  0  0  0  0  0  0
    0.5216   22.0970  -25.2719 C   0  0  0  0  0  0  0  0  0  0  0  0
    0.2689   22.4374  -26.5344 N   0  0  0  0  0  0  0  0  0  0  0  0
   -1.0235   22.7676  -26.9014 C   0  0  0  0  0  0  0  0  0  0  0  0
   -1.2198   23.1198  -28.2610 N   0  0  0  0  0  0  0  0  0  0  0  0
   -1.4537   22.4090  -29.0049 H   0  0  0  0  0  0  0  0  0  0  0  0
   -1.1311   24.1134  -28.6074 H   0  0  0  0  0  0  0  0  0  0  0  0
   -5.5301   23.5025  -25.2681 N   0  0  0  0  0  0  0  0  0  0  0  0
   -4.2567   23.2109  -25.1653 N   0  0  0  0  0  0  0  0  0  0  0  0
   -3.4152   23.0707  -26.2513 C   0  0  0  0  0  0  0  0  0  0  0  0
   -3.9967   23.2566  -27.4596 C   0  0  0  0  0  0  0  0  0  0  0  0
   -5.3685   23.5728  -27.6145 C   0  0  0  0  0  0  0  0  0  0  0  0
   -6.1054   23.6867  -26.4679 C   0  0  0  0  0  0  0  0  0  0  0  0
   -7.3537   23.9694  -26.4975 O   0  0  0  0  0  0  0  0  0  0  0  0
   -7.4973   25.0334  -22.4857 C   0  0  0  0  0  0  0  0  0  0  0  0
   -7.9544   23.8860  -21.8416 C   0  0  0  0  0  0  0  0  0  0  0  0
   -7.6308   22.6261  -22.3011 C   0  0  0  0  0  0  0  0  0  0  0  0
   -6.8423   22.5388  -23.4155 C   0  0  0  0  0  0  0  0  0  0  0  0
   -6.4170   20.9414  -24.0194 Cl  0  0  0  0  0  0  0  0  0  0  0  0
   -6.3588   23.6359  -24.0969 C   0  0  0  0  0  0  0  0  0  0  0  0
   -6.7075   24.8758  -23.6021 C   0  0  0  0  0  0  0  0  0  0  0  0
   -6.1111   26.3039  -24.4426 Cl  0  0  0  0  0  0  0  0  0  0  0  0
   -8.3657   26.5937  -20.7987 C   0  0  0  0  0  0  0  0  0  0  0  0
   -7.7992   26.3090  -22.0569 O   0  0  0  0  0  0  0  0  0  0  0  0
   -8.1058   21.4846  -21.6319 O   0  0  0  0  0  0  0  0  0  0  0  0
   -8.3089   21.4748  -20.2462 C   0  0  0  0  0  0  0  0  0  0  0  0
   -0.1493   21.6857  -22.9484 C   0  0  0  0  0  0  0  0  0  0  0  0
   -0.7807   22.0693  -21.7912 C   0  0  0  0  0  0  0  0  0  0  0  0
   -0.1346   21.4758  -20.7783 N   0  0  0  0  0  0  0  0  0  0  0  0
    0.8643   20.7412  -21.2140 N   0  0  0  0  0  0  0  0  0  0  0  0
    0.8693   20.8604  -22.5598 C   0  0  0  0  0  0  0  0  0  0  0  0
    1.7807   19.9584  -20.4232 C   0  0  0  0  0  0  0  0  0  0  0  0
    1.1391   18.7378  -19.8196 C   0  0  0  0  0  0  0  0  0  0  0  0
    1.8953   17.4771  -20.0972 C   0  0  0  0  0  0  0  0  0  0  0  0
    0.9114   18.8871  -18.3266 C   0  0  0  0  0  0  0  0  0  0  0  0
   -0.1304   18.6132  -20.4005 O   0  0  0  0  0  0  0  0  0  0  0  0
   -0.0673   18.2212  -21.2929 H   0  0  0  0  0  0  0  0  0  0  0  0
 25 26  1  0  0  0
 26 17  1  0  0  0
 17 18  2  0  0  0
 18 19  1  0  0  0
 19 27  1  0  0  0
 27 28  1  0  0  0
 19 20  2  0  0  0
 20 21  1  0  0  0
 20 22  1  0  0  0
 22 23  2  0  0  0
 23 24  1  0  0  0
 22 10  1  0  0  0
 10 11  1  0  0  0
 11 12  2  0  0  0
 12 13  1  0  0  0
 13 14  2  0  0  0
 14 15  1  0  0  0
 15 16  2  0  0  0
 12  1  1  0  0  0
  1  2  2  0  0  0
  2  3  1  0  0  0
  3  4  2  0  0  0
  4  5  1  0  0  0
  5  6  2  0  0  0
  6  7  1  0  0  0
  3 29  1  0  0  0
 29 30  1  0  0  0
 30 31  2  0  0  0
 31 32  1  0  0  0
 32 34  1  0  0  0
 34 35  1  0  0  0
 35 36  1  0  0  0
 35 37  1  0  0  0
 35 38  1  0  0  0
 32 33  1  0  0  0
 23 17  1  0  0  0
 15 10  1  0  0  0
  6  1  1  0  0  0
 33 29  2  0  0  0
  7  8  1  0  0  0
  7  9  1  0  0  0
 38 39  1  0  0  0
M  END
> <minimizedAffinity>
-8.38171

> <CNNscore>
0.6034783125

> <CNNaffinity>
7.6894598007

> <CNN_VS>
4.6404223442

> <CNNaffinity_variance>
0.1705954522

$$$$
[H]OC(C([H])([H])[H])(C([H])([H])[H])C([H])([H])n1nc([H])c(-c2nc(-c3nn(-c4c(Cl)c(OC([H])([H])[H])c([H])c(OC([H])([H])[H])c4Cl)c(=O)c([H])c3[H])c(N([H])[H])nc2[H])c1[H]


 39 42  0  0  0  0  0  0  0  0999 V2000
   -0.6802   21.8529  -24.0116 C   0  0  0  0  0  0  0  0  0  0  0  0
   -1.8538   22.1697  -24.6784 N   0  0  0  0  0  0  0  0  0  0  0  0
   -1.8632   22.4719  -25.9732 C   0  0  0  0  0  0  0  0  0  0  0  0
   -0.6633   22.4662  -26.6602 C   0  0  0  0  0  0  0  0  0  0  0  0
    0.4855   22.1675  -26.0563 N   0  0  0  0  0  0  0  0  0  0  0  0
    0.4812   21.8548  -24.7086 C   0  0  0  0  0  0  0  0  0  0  0  0
    1.7395   21.5471  -24.1312 N   0  0  0  0  0  0  0  0  0  0  0  0
    2.3654   22.2823  -23.7059 H   0  0  0  0  0  0  0  0  0  0  0  0
    2.1260   20.5647  -24.1053 H   0  0  0  0  0  0  0  0  0  0  0  0
    0.2621   20.5728  -20.7135 N   0  0  0  0  0  0  0  0  0  0  0  0
    0.2523   20.9076  -21.9803 N   0  0  0  0  0  0  0  0  0  0  0  0
   -0.8100   21.5412  -22.5946 C   0  0  0  0  0  0  0  0  0  0  0  0
   -1.8680   21.8034  -21.7917 C   0  0  0  0  0  0  0  0  0  0  0  0
   -1.8978   21.4586  -20.4185 C   0  0  0  0  0  0  0  0  0  0  0  0
   -0.7886   20.8338  -19.9183 C   0  0  0  0  0  0  0  0  0  0  0  0
   -0.7139   20.4802  -18.6901 O   0  0  0  0  0  0  0  0  0  0  0  0
    3.5115   20.0249  -18.9538 C   0  0  0  0  0  0  0  0  0  0  0  0
    3.5917   18.6351  -19.0034 C   0  0  0  0  0  0  0  0  0  0  0  0
    2.6044   17.8787  -19.6003 C   0  0  0  0  0  0  0  0  0  0  0  0
    1.5382   18.5403  -20.1451 C   0  0  0  0  0  0  0  0  0  0  0  0
    0.2669   17.5953  -20.9117 Cl  0  0  0  0  0  0  0  0  0  0  0  0
    1.4012   19.9124  -20.1282 C   0  0  0  0  0  0  0  0  0  0  0  0
    2.4121   20.6287  -19.5209 C   0  0  0  0  0  0  0  0  0  0  0  0
    2.2765   22.3841  -19.4772 Cl  0  0  0  0  0  0  0  0  0  0  0  0
    5.6908   21.1578  -18.9950 C   0  0  0  0  0  0  0  0  0  0  0  0
    4.4775   20.8146  -18.3664 O   0  0  0  0  0  0  0  0  0  0  0  0
    2.7103   16.4771  -19.6363 O   0  0  0  0  0  0  0  0  0  0  0  0
    3.4460   15.8198  -20.6303 C   0  0  0  0  0  0  0  0  0  0  0  0
   -3.0928   22.8057  -26.6791 C   0  0  0  0  0  0  0  0  0  0  0  0
   -4.3153   23.1246  -26.1419 C   0  0  0  0  0  0  0  0  0  0  0  0
   -5.1450   23.3555  -27.1684 N   0  0  0  0  0  0  0  0  0  0  0  0
   -4.5322   23.2048  -28.3213 N   0  0  0  0  0  0  0  0  0  0  0  0
   -3.2566   22.8632  -28.0355 C   0  0  0  0  0  0  0  0  0  0  0  0
   -5.0974   23.3684  -29.6371 C   0  0  0  0  0  0  0  0  0  0  0  0
   -5.3045   24.8118  -30.0108 C   0  0  0  0  0  0  0  0  0  0  0  0
   -4.0671   25.6403  -29.8678 C   0  0  0  0  0  0  0  0  0  0  0  0
   -5.8734   24.9676  -31.4091 C   0  0  0  0  0  0  0  0  0  0  0  0
   -6.2693   25.3269  -29.1341 O   0  0  0  0  0  0  0  0  0  0  0  0
   -5.8731   25.5385  -28.2667 H   0  0  0  0  0  0  0  0  0  0  0  0
 25 26  1  0  0  0
 26 17  1  0  0  0
 17 18  2  0  0  0
 18 19  1  0  0  0
 19 27  1  0  0  0
 27 28  1  0  0  0
 19 20  2  0  0  0
 20 21  1  0  0  0
 20 22  1  0  0  0
 22 23  2  0  0  0
 23 24  1  0  0  0
 22 10  1  0  0  0
 10 11  1  0  0  0
 11 12  2  0  0  0
 12 13  1  0  0  0
 13 14  2  0  0  0
 14 15  1  0  0  0
 15 16  2  0  0  0
 12  1  1  0  0  0
  1  2  2  0  0  0
  2  3  1  0  0  0
  3  4  2  0  0  0
  4  5  1  0  0  0
  5  6  2  0  0  0
  6  7  1  0  0  0
  3 29  1  0  0  0
 29 30  1  0  0  0
 30 31  2  0  0  0
 31 32  1  0  0  0
 32 34  1  0  0  0
 34 35  1  0  0  0
 35 36  1  0  0  0
 35 37  1  0  0  0
 35 38  1  0  0  0
 32 33  1  0  0  0
 23 17  1  0  0  0
 15 10  1  0  0  0
  6  1  1  0  0  0
 33 29  2  0  0  0
  7  8  1  0  0  0
  7  9  1  0  0  0
 38 39  1  0  0  0
M  END
> <minimizedAffinity>
-8.10281

> <CNNscore>
0.3842999637

> <CNNaffinity>
7.4286794662

> <CNN_VS>
2.8548412323

> <CNNaffinity_variance>
0.1975159943

$$$$
[H]OC(C([H])([H])[H])(C([H])([H])[H])C([H])([H])n1nc([H])c(-c2nc(-c3nn(-c4c(Cl)c(OC([H])([H])[H])c([H])c(OC([H])([H])[H])c4Cl)c(=O)c([H])c3[H])c(N([H])[H])nc2[H])c1[H]


 39 42  0  0  0  0  0  0  0  0999 V2000
   -0.9147   22.2261  -24.7449 C   0  0  0  0  0  0  0  0  0  0  0  0
   -0.9844   21.7155  -23.4578 N   0  0  0  0  0  0  0  0  0  0  0  0
    0.1025   21.3193  -22.8024 C   0  0  0  0  0  0  0  0  0  0  0  0
    1.3281   21.4249  -23.4335 C   0  0  0  0  0  0  0  0  0  0  0  0
    1.4375   21.9099  -24.6691 N   0  0  0  0  0  0  0  0  0  0  0  0
    0.2986   22.3187  -25.3398 C   0  0  0  0  0  0  0  0  0  0  0  0
    0.4894   22.8243  -26.6510 N   0  0  0  0  0  0  0  0  0  0  0  0
    0.4728   22.2073  -27.5068 H   0  0  0  0  0  0  0  0  0  0  0  0
    0.6707   23.8467  -26.8433 H   0  0  0  0  0  0  0  0  0  0  0  0
   -4.4382   23.2057  -24.9174 N   0  0  0  0  0  0  0  0  0  0  0  0
   -3.2487   22.8451  -24.5026 N   0  0  0  0  0  0  0  0  0  0  0  0
   -2.1796   22.6233  -25.3483 C   0  0  0  0  0  0  0  0  0  0  0  0
   -2.4381   22.8048  -26.6647 C   0  0  0  0  0  0  0  0  0  0  0  0
   -3.7086   23.1940  -27.1544 C   0  0  0  0  0  0  0  0  0  0  0  0
   -4.6928   23.3853  -26.2240 C   0  0  0  0  0  0  0  0  0  0  0  0
   -5.8763   23.7379  -26.5616 O   0  0  0  0  0  0  0  0  0  0  0  0
   -6.9120   24.9316  -22.7136 C   0  0  0  0  0  0  0  0  0  0  0  0
   -7.5915   23.8331  -22.1919 C   0  0  0  0  0  0  0  0  0  0  0  0
   -7.2547   22.5436  -22.5483 C   0  0  0  0  0  0  0  0  0  0  0  0
   -6.2265   22.3768  -23.4349 C   0  0  0  0  0  0  0  0  0  0  0  0
   -5.7797   20.7404  -23.9036 Cl  0  0  0  0  0  0  0  0  0  0  0  0
   -5.5159   23.4224  -23.9858 C   0  0  0  0  0  0  0  0  0  0  0  0
   -5.8870   24.6945  -23.6013 C   0  0  0  0  0  0  0  0  0  0  0  0
   -5.0052   26.0589  -24.2815 Cl  0  0  0  0  0  0  0  0  0  0  0  0
   -8.0188   26.5888  -21.2772 C   0  0  0  0  0  0  0  0  0  0  0  0
   -7.2193   26.2344  -22.3818 O   0  0  0  0  0  0  0  0  0  0  0  0
   -7.9573   21.4528  -22.0067 O   0  0  0  0  0  0  0  0  0  0  0  0
   -8.4729   21.4825  -20.7049 C   0  0  0  0  0  0  0  0  0  0  0  0
    0.0356   20.7819  -21.4501 C   0  0  0  0  0  0  0  0  0  0  0  0
    0.5027   19.5728  -20.9976 C   0  0  0  0  0  0  0  0  0  0  0  0
    0.2206   19.5098  -19.6892 N   0  0  0  0  0  0  0  0  0  0  0  0
   -0.3941   20.5971  -19.2802 N   0  0  0  0  0  0  0  0  0  0  0  0
   -0.5170   21.3978  -20.3615 C   0  0  0  0  0  0  0  0  0  0  0  0
   -0.8519   20.8900  -17.9451 C   0  0  0  0  0  0  0  0  0  0  0  0
   -2.2825   20.4830  -17.7135 C   0  0  0  0  0  0  0  0  0  0  0  0
   -2.5412   20.0092  -16.3182 C   0  0  0  0  0  0  0  0  0  0  0  0
   -3.2598   21.5863  -18.0754 C   0  0  0  0  0  0  0  0  0  0  0  0
   -2.5512   19.4184  -18.5847 O   0  0  0  0  0  0  0  0  0  0  0  0
   -2.1863   18.5825  -18.2350 H   0  0  0  0  0  0  0  0  0  0  0  0
 25 26  1  0  0  0
 26 17  1  0  0  0
 17 18  2  0  0  0
 18 19  1  0  0  0
 19 27  1  0  0  0
 27 28  1  0  0  0
 19 20  2  0  0  0
 20 21  1  0  0  0
 20 22  1  0  0  0
 22 23  2  0  0  0
 23 24  1  0  0  0
 22 10  1  0  0  0
 10 11  1  0  0  0
 11 12  2  0  0  0
 12 13  1  0  0  0
 13 14  2  0  0  0
 14 15  1  0  0  0
 15 16  2  0  0  0
 12  1  1  0  0  0
  1  2  2  0  0  0
  2  3  1  0  0  0
  3  4  2  0  0  0
  4  5  1  0  0  0
  5  6  2  0  0  0
  6  7  1  0  0  0
  3 29  1  0  0  0
 29 30  1  0  0  0
 30 31  2  0  0  0
 31 32  1  0  0  0
 32 34  1  0  0  0
 34 35  1  0  0  0
 35 36  1  0  0  0
 35 37  1  0  0  0
 35 38  1  0  0  0
 32 33  1  0  0  0
 23 17  1  0  0  0
 15 10  1  0  0  0
  6  1  1  0  0  0
 33 29  2  0  0  0
  7  8  1  0  0  0
  7  9  1  0  0  0
 38 39  1  0  0  0
M  END
> <minimizedAffinity>
-7.48729

> <CNNscore>
0.3828331828

> <CNNaffinity>
7.2938551903

> <CNN_VS>
2.7923297882

> <CNNaffinity_variance>
0.1866797805

$$$$
[H]OC(C([H])([H])[H])(C([H])([H])[H])C([H])([H])n1nc([H])c(-c2nc(-c3nn(-c4c(Cl)c(OC([H])([H])[H])c([H])c(OC([H])([H])[H])c4Cl)c(=O)c([H])c3[H])c(N([H])[H])nc2[H])c1[H]


 39 42  0  0  0  0  0  0  0  0999 V2000
   -0.5849   21.8330  -23.9769 C   0  0  0  0  0  0  0  0  0  0  0  0
   -1.7593   22.1530  -24.6407 N   0  0  0  0  0  0  0  0  0  0  0  0
   -1.7716   22.4525  -25.9361 C   0  0  0  0  0  0  0  0  0  0  0  0
   -0.5740   22.4404  -26.6269 C   0  0  0  0  0  0  0  0  0  0  0  0
    0.5755   22.1384  -26.0260 N   0  0  0  0  0  0  0  0  0  0  0  0
    0.5743   21.8287  -24.6776 C   0  0  0  0  0  0  0  0  0  0  0  0
    1.8331   21.5172  -24.1035 N   0  0  0  0  0  0  0  0  0  0  0  0
    2.4633   22.2509  -23.6818 H   0  0  0  0  0  0  0  0  0  0  0  0
    2.2158   20.5334  -24.0767 H   0  0  0  0  0  0  0  0  0  0  0  0
    0.3631   20.5572  -20.6787 N   0  0  0  0  0  0  0  0  0  0  0  0
    0.3506   20.8892  -21.9463 N   0  0  0  0  0  0  0  0  0  0  0  0
   -0.7115   21.5249  -22.5588 C   0  0  0  0  0  0  0  0  0  0  0  0
   -1.7662   21.7923  -21.7534 C   0  0  0  0  0  0  0  0  0  0  0  0
   -1.7930   21.4506  -20.3793 C   0  0  0  0  0  0  0  0  0  0  0  0
   -0.6844   20.8233  -19.8810 C   0  0  0  0  0  0  0  0  0  0  0  0
   -0.6071   20.4723  -18.6523 O   0  0  0  0  0  0  0  0  0  0  0  0
    2.7046   17.8609  -19.5823 C   0  0  0  0  0  0  0  0  0  0  0  0
    3.6964   18.6242  -18.9705 C   0  0  0  0  0  0  0  0  0  0  0  0
    3.6113   19.9999  -18.9117 C   0  0  0  0  0  0  0  0  0  0  0  0
    2.5161   20.5940  -19.4761 C   0  0  0  0  0  0  0  0  0  0  0  0
    2.3869   22.3480  -19.4127 Cl  0  0  0  0  0  0  0  0  0  0  0  0
    1.5018   19.8944  -20.0954 C   0  0  0  0  0  0  0  0  0  0  0  0
    1.6285   18.5209  -20.1310 C   0  0  0  0  0  0  0  0  0  0  0  0
    0.3550   17.5888  -20.9128 Cl  0  0  0  0  0  0  0  0  0  0  0  0
    3.4780   15.7870  -20.6479 C   0  0  0  0  0  0  0  0  0  0  0  0
    2.7542   16.4849  -19.6610 O   0  0  0  0  0  0  0  0  0  0  0  0
    4.6267   20.7462  -18.2882 O   0  0  0  0  0  0  0  0  0  0  0  0
    4.6351   20.9661  -16.9051 C   0  0  0  0  0  0  0  0  0  0  0  0
   -3.0021   22.7896  -26.6389 C   0  0  0  0  0  0  0  0  0  0  0  0
   -4.2003   23.1887  -26.1004 C   0  0  0  0  0  0  0  0  0  0  0  0
   -5.0418   23.3878  -27.1239 N   0  0  0  0  0  0  0  0  0  0  0  0
   -4.4591   23.1421  -28.2761 N   0  0  0  0  0  0  0  0  0  0  0  0
   -3.1917   22.7693  -27.9929 C   0  0  0  0  0  0  0  0  0  0  0  0
   -5.0450   23.2458  -29.5890 C   0  0  0  0  0  0  0  0  0  0  0  0
   -5.3221   24.6681  -29.9966 C   0  0  0  0  0  0  0  0  0  0  0  0
   -4.1115   25.5449  -29.9343 C   0  0  0  0  0  0  0  0  0  0  0  0
   -5.9568   24.7586  -31.3721 C   0  0  0  0  0  0  0  0  0  0  0  0
   -6.2663   25.1759  -29.0936 O   0  0  0  0  0  0  0  0  0  0  0  0
   -5.8408   25.4292  -28.2516 H   0  0  0  0  0  0  0  0  0  0  0  0
 25 26  1  0  0  0
 26 17  1  0  0  0
 17 18  2  0  0  0
 18 19  1  0  0  0
 19 27  1  0  0  0
 27 28  1  0  0  0
 19 20  2  0  0  0
 20 21  1  0  0  0
 20 22  1  0  0  0
 22 23  2  0  0  0
 23 24  1  0  0  0
 22 10  1  0  0  0
 10 11  1  0  0  0
 11 12  2  0  0  0
 12 13  1  0  0  0
 13 14  2  0  0  0
 14 15  1  0  0  0
 15 16  2  0  0  0
 12  1  1  0  0  0
  1  2  2  0  0  0
  2  3  1  0  0  0
  3  4  2  0  0  0
  4  5  1  0  0  0
  5  6  2  0  0  0
  6  7  1  0  0  0
  3 29  1  0  0  0
 29 30  1  0  0  0
 30 31  2  0  0  0
 31 32  1  0  0  0
 32 34  1  0  0  0
 34 35  1  0  0  0
 35 36  1  0  0  0
 35 37  1  0  0  0
 35 38  1  0  0  0
 32 33  1  0  0  0
 23 17  1  0  0  0
 15 10  1  0  0  0
  6  1  1  0  0  0
 33 29  2  0  0  0
  7  8  1  0  0  0
  7  9  1  0  0  0
 38 39  1  0  0  0
M  END
> <minimizedAffinity>
-8.04852

> <CNNscore>
0.3433033526

> <CNNaffinity>
7.3467545509

> <CNN_VS>
2.5221655369

> <CNNaffinity_variance>
0.1822748929

$$$$
[H]OC(C([H])([H])[H])(C([H])([H])[H])C([H])([H])n1nc([H])c(-c2nc(-c3nn(-c4c(Cl)c(OC([H])([H])[H])c([H])c(OC([H])([H])[H])c4Cl)c(=O)c([H])c3[H])c(N([H])[H])nc2[H])c1[H]


 39 42  0  0  0  0  0  0  0  0999 V2000
    0.4158   18.7910  -20.3553 C   0  0  0  0  0  0  0  0  0  0  0  0
   -0.5083   17.9363  -19.7739 N   0  0  0  0  0  0  0  0  0  0  0  0
   -0.2127   16.6698  -19.4973 C   0  0  0  0  0  0  0  0  0  0  0  0
    1.0535   16.2064  -19.8030 C   0  0  0  0  0  0  0  0  0  0  0  0
    1.9696   16.9953  -20.3619 N   0  0  0  0  0  0  0  0  0  0  0  0
    1.6490   18.3112  -20.6445 C   0  0  0  0  0  0  0  0  0  0  0  0
    2.6721   19.0931  -21.2388 N   0  0  0  0  0  0  0  0  0  0  0  0
    2.8030   19.1595  -22.2836 H   0  0  0  0  0  0  0  0  0  0  0  0
    3.3684   19.6442  -20.6673 H   0  0  0  0  0  0  0  0  0  0  0  0
   -1.1061   21.5888  -22.1608 N   0  0  0  0  0  0  0  0  0  0  0  0
   -0.6542   20.4089  -21.8136 N   0  0  0  0  0  0  0  0  0  0  0  0
   -0.0365   20.1529  -20.6052 C   0  0  0  0  0  0  0  0  0  0  0  0
    0.0782   21.2189  -19.7786 C   0  0  0  0  0  0  0  0  0  0  0  0
   -0.3964   22.5100  -20.1152 C   0  0  0  0  0  0  0  0  0  0  0  0
   -0.9913   22.6455  -21.3393 C   0  0  0  0  0  0  0  0  0  0  0  0
   -1.4540   23.7699  -21.7401 O   0  0  0  0  0  0  0  0  0  0  0  0
   -3.7509   21.9682  -24.7716 C   0  0  0  0  0  0  0  0  0  0  0  0
   -2.9613   22.1919  -25.8971 C   0  0  0  0  0  0  0  0  0  0  0  0
   -1.5844   22.2205  -25.8154 C   0  0  0  0  0  0  0  0  0  0  0  0
   -1.0159   22.0210  -24.5873 C   0  0  0  0  0  0  0  0  0  0  0  0
    0.7390   22.0533  -24.4597 Cl  0  0  0  0  0  0  0  0  0  0  0  0
   -1.7423   21.7948  -23.4371 C   0  0  0  0  0  0  0  0  0  0  0  0
   -3.1159   21.7747  -23.5656 C   0  0  0  0  0  0  0  0  0  0  0  0
   -4.0818   21.4891  -22.1209 Cl  0  0  0  0  0  0  0  0  0  0  0  0
   -5.9362   23.0857  -24.8719 C   0  0  0  0  0  0  0  0  0  0  0  0
   -5.1289   21.9325  -24.8132 O   0  0  0  0  0  0  0  0  0  0  0  0
   -0.8112   22.4485  -26.9674 O   0  0  0  0  0  0  0  0  0  0  0  0
   -1.3686   22.9890  -28.1329 C   0  0  0  0  0  0  0  0  0  0  0  0
   -1.1792   15.7672  -18.8867 C   0  0  0  0  0  0  0  0  0  0  0  0
   -1.4526   15.5997  -17.5517 C   0  0  0  0  0  0  0  0  0  0  0  0
   -2.4100   14.6665  -17.4630 N   0  0  0  0  0  0  0  0  0  0  0  0
   -2.7631   14.2298  -18.6512 N   0  0  0  0  0  0  0  0  0  0  0  0
   -2.0083   14.9032  -19.5470 C   0  0  0  0  0  0  0  0  0  0  0  0
   -3.7574   13.2308  -18.9530 C   0  0  0  0  0  0  0  0  0  0  0  0
   -5.1560   13.7864  -18.9845 C   0  0  0  0  0  0  0  0  0  0  0  0
   -5.3964   14.7109  -20.1359 C   0  0  0  0  0  0  0  0  0  0  0  0
   -6.2091   12.6937  -18.9691 C   0  0  0  0  0  0  0  0  0  0  0  0
   -5.3320   14.5188  -17.8024 O   0  0  0  0  0  0  0  0  0  0  0  0
   -4.9096   15.3968  -17.8714 H   0  0  0  0  0  0  0  0  0  0  0  0
 25 26  1  0  0  0
 26 17  1  0  0  0
 17 18  2  0  0  0
 18 19  1  0  0  0
 19 27  1  0  0  0
 27 28  1  0  0  0
 19 20  2  0  0  0
 20 21  1  0  0  0
 20 22  1  0  0  0
 22 23  2  0  0  0
 23 24  1  0  0  0
 22 10  1  0  0  0
 10 11  1  0  0  0
 11 12  2  0  0  0
 12 13  1  0  0  0
 13 14  2  0  0  0
 14 15  1  0  0  0
 15 16  2  0  0  0
 12  1  1  0  0  0
  1  2  2  0  0  0
  2  3  1  0  0  0
  3  4  2  0  0  0
  4  5  1  0  0  0
  5  6  2  0  0  0
  6  7  1  0  0  0
  3 29  1  0  0  0
 29 30  1  0  0  0
 30 31  2  0  0  0
 31 32  1  0  0  0
 32 34  1  0  0  0
 34 35  1  0  0  0
 35 36  1  0  0  0
 35 37  1  0  0  0
 35 38  1  0  0  0
 32 33  1  0  0  0
 23 17  1  0  0  0
 15 10  1  0  0  0
  6  1  1  0  0  0
 33 29  2  0  0  0
  7  8  1  0  0  0
  7  9  1  0  0  0
 38 39  1  0  0  0
M  END
> <minimizedAffinity>
-6.52964

> <CNNscore>
0.1304905564

> <CNNaffinity>
6.4265885353

> <CNN_VS>
0.8386090994

> <CNNaffinity_variance>
0.0332403556

$$$$
[H]OC(C([H])([H])[H])(C([H])([H])[H])C([H])([H])n1nc([H])c(-c2nc(-c3nn(-c4c(Cl)c(OC([H])([H])[H])c([H])c(OC([H])([H])[H])c4Cl)c(=O)c([H])c3[H])c(N([H])[H])nc2[H])c1[H]


 39 42  0  0  0  0  0  0  0  0999 V2000
   -0.7698   22.1059  -24.7424 C   0  0  0  0  0  0  0  0  0  0  0  0
   -2.0576   22.3780  -24.3064 N   0  0  0  0  0  0  0  0  0  0  0  0
   -3.0008   22.8111  -25.1376 C   0  0  0  0  0  0  0  0  0  0  0  0
   -2.6745   22.9904  -26.4691 C   0  0  0  0  0  0  0  0  0  0  0  0
   -1.4493   22.7405  -26.9274 N   0  0  0  0  0  0  0  0  0  0  0  0
   -0.4771   22.2901  -26.0520 C   0  0  0  0  0  0  0  0  0  0  0  0
    0.8040   22.0444  -26.6084 N   0  0  0  0  0  0  0  0  0  0  0  0
    1.5510   22.7873  -26.6666 H   0  0  0  0  0  0  0  0  0  0  0  0
    1.0782   21.1057  -27.0068 H   0  0  0  0  0  0  0  0  0  0  0  0
    0.3792   20.8127  -21.5157 N   0  0  0  0  0  0  0  0  0  0  0  0
   -0.3535   21.2520  -22.5093 N   0  0  0  0  0  0  0  0  0  0  0  0
    0.1662   21.6375  -23.7293 C   0  0  0  0  0  0  0  0  0  0  0  0
    1.5112   21.5327  -23.8426 C   0  0  0  0  0  0  0  0  0  0  0  0
    2.3389   21.0631  -22.7938 C   0  0  0  0  0  0  0  0  0  0  0  0
    1.7136   20.7094  -21.6299 C   0  0  0  0  0  0  0  0  0  0  0  0
    2.3700   20.2728  -20.6211 O   0  0  0  0  0  0  0  0  0  0  0  0
   -1.2712   21.0248  -18.1711 C   0  0  0  0  0  0  0  0  0  0  0  0
   -1.3757   19.6716  -17.8574 C   0  0  0  0  0  0  0  0  0  0  0  0
   -0.9172   18.6963  -18.7186 C   0  0  0  0  0  0  0  0  0  0  0  0
   -0.3534   19.1022  -19.8969 C   0  0  0  0  0  0  0  0  0  0  0  0
    0.2384   17.8750  -21.0107 Cl  0  0  0  0  0  0  0  0  0  0  0  0
   -0.2211   20.4248  -20.2645 C   0  0  0  0  0  0  0  0  0  0  0  0
   -0.6934   21.3660  -19.3730 C   0  0  0  0  0  0  0  0  0  0  0  0
   -0.5442   23.0672  -19.8036 Cl  0  0  0  0  0  0  0  0  0  0  0  0
   -3.0653   22.4303  -17.2545 C   0  0  0  0  0  0  0  0  0  0  0  0
   -1.7176   22.0281  -17.3368 O   0  0  0  0  0  0  0  0  0  0  0  0
   -1.0353   17.3375  -18.3770 O   0  0  0  0  0  0  0  0  0  0  0  0
   -0.7419   16.8742  -17.0884 C   0  0  0  0  0  0  0  0  0  0  0  0
   -4.3553   23.0988  -24.6855 C   0  0  0  0  0  0  0  0  0  0  0  0
   -5.5250   22.9832  -25.3950 C   0  0  0  0  0  0  0  0  0  0  0  0
   -6.5175   23.3556  -24.5755 N   0  0  0  0  0  0  0  0  0  0  0  0
   -6.0573   23.7000  -23.3935 N   0  0  0  0  0  0  0  0  0  0  0  0
   -4.7159   23.5462  -23.4448 C   0  0  0  0  0  0  0  0  0  0  0  0
   -6.8214   24.1536  -22.2586 C   0  0  0  0  0  0  0  0  0  0  0  0
   -7.0540   23.0717  -21.2382 C   0  0  0  0  0  0  0  0  0  0  0  0
   -7.3633   21.7420  -21.8501 C   0  0  0  0  0  0  0  0  0  0  0  0
   -5.8948   22.9381  -20.2678 C   0  0  0  0  0  0  0  0  0  0  0  0
   -8.1631   23.4609  -20.4747 O   0  0  0  0  0  0  0  0  0  0  0  0
   -8.9952   23.2811  -20.9538 H   0  0  0  0  0  0  0  0  0  0  0  0
 25 26  1  0  0  0
 26 17  1  0  0  0
 17 18  2  0  0  0
 18 19  1  0  0  0
 19 27  1  0  0  0
 27 28  1  0  0  0
 19 20  2  0  0  0
 20 21  1  0  0  0
 20 22  1  0  0  0
 22 23  2  0  0  0
 23 24  1  0  0  0
 22 10  1  0  0  0
 10 11  1  0  0  0
 11 12  2  0  0  0
 12 13  1  0  0  0
 13 14  2  0  0  0
 14 15  1  0  0  0
 15 16  2  0  0  0
 12  1  1  0  0  0
  1  2  2  0  0  0
  2  3  1  0  0  0
  3  4  2  0  0  0
  4  5  1  0  0  0
  5  6  2  0  0  0
  6  7  1  0  0  0
  3 29  1  0  0  0
 29 30  1  0  0  0
 30 31  2  0  0  0
 31 32  1  0  0  0
 32 34  1  0  0  0
 34 35  1  0  0  0
 35 36  1  0  0  0
 35 37  1  0  0  0
 35 38  1  0  0  0
 32 33  1  0  0  0
 23 17  1  0  0  0
 15 10  1  0  0  0
  6  1  1  0  0  0
 33 29  2  0  0  0
  7  8  1  0  0  0
  7  9  1  0  0  0
 38 39  1  0  0  0
M  END
> <minimizedAffinity>
-7.00823

> <CNNscore>
0.1261304170

> <CNNaffinity>
6.8762483597

> <CNN_VS>
0.8673040867

> <CNNaffinity_variance>
0.0573909506

$$$$
[H]OC(C([H])([H])[H])(C([H])([H])[H])C([H])([H])n1nc([H])c(-c2nc(-c3nn(-c4c(Cl)c(OC([H])([H])[H])c([H])c(OC([H])([H])[H])c4Cl)c(=O)c([H])c3[H])c(N([H])[H])nc2[H])c1[H]


 39 42  0  0  0  0  0  0  0  0999 V2000
   -0.4814   21.8339  -23.3270 C   0  0  0  0  0  0  0  0  0  0  0  0
   -1.3920   22.2117  -24.3019 N   0  0  0  0  0  0  0  0  0  0  0  0
   -1.0562   22.2731  -25.5870 C   0  0  0  0  0  0  0  0  0  0  0  0
    0.2390   21.9489  -25.9461 C   0  0  0  0  0  0  0  0  0  0  0  0
    1.1434   21.5813  -25.0402 N   0  0  0  0  0  0  0  0  0  0  0  0
    0.7808   21.5215  -23.7063 C   0  0  0  0  0  0  0  0  0  0  0  0
    1.7937   21.1228  -22.7974 N   0  0  0  0  0  0  0  0  0  0  0  0
    2.4455   21.8111  -22.3340 H   0  0  0  0  0  0  0  0  0  0  0  0
    1.9601   20.1116  -22.5422 H   0  0  0  0  0  0  0  0  0  0  0  0
   -0.4054   21.4110  -19.6912 N   0  0  0  0  0  0  0  0  0  0  0  0
   -0.0855   21.4709  -20.9604 N   0  0  0  0  0  0  0  0  0  0  0  0
   -0.9789   21.8080  -21.9582 C   0  0  0  0  0  0  0  0  0  0  0  0
   -2.2369   22.0800  -21.5385 C   0  0  0  0  0  0  0  0  0  0  0  0
   -2.6238   22.0269  -20.1772 C   0  0  0  0  0  0  0  0  0  0  0  0
   -1.6542   21.6813  -19.2765 C   0  0  0  0  0  0  0  0  0  0  0  0
   -1.8997   21.6043  -18.0224 O   0  0  0  0  0  0  0  0  0  0  0  0
    1.6517   19.3748  -17.3294 C   0  0  0  0  0  0  0  0  0  0  0  0
    2.4547   20.3692  -16.7757 C   0  0  0  0  0  0  0  0  0  0  0  0
    2.3343   21.6884  -17.1611 C   0  0  0  0  0  0  0  0  0  0  0  0
    1.3960   21.9908  -18.1094 C   0  0  0  0  0  0  0  0  0  0  0  0
    1.2250   23.6674  -18.6162 Cl  0  0  0  0  0  0  0  0  0  0  0  0
    0.5718   21.0527  -18.6946 C   0  0  0  0  0  0  0  0  0  0  0  0
    0.7270   19.7462  -18.2792 C   0  0  0  0  0  0  0  0  0  0  0  0
   -0.3059   18.5160  -19.0014 Cl  0  0  0  0  0  0  0  0  0  0  0  0
    1.6061   17.5870  -15.6454 C   0  0  0  0  0  0  0  0  0  0  0  0
    1.7424   18.0464  -16.9702 O   0  0  0  0  0  0  0  0  0  0  0  0
    3.1578   22.6722  -16.5860 O   0  0  0  0  0  0  0  0  0  0  0  0
    2.8720   23.2317  -15.3343 C   0  0  0  0  0  0  0  0  0  0  0  0
   -2.0083   22.6693  -26.6156 C   0  0  0  0  0  0  0  0  0  0  0  0
   -1.7724   22.8688  -27.9534 C   0  0  0  0  0  0  0  0  0  0  0  0
   -2.9399   23.2226  -28.5076 N   0  0  0  0  0  0  0  0  0  0  0  0
   -3.9013   23.2614  -27.6124 N   0  0  0  0  0  0  0  0  0  0  0  0
   -3.3398   22.9204  -26.4317 C   0  0  0  0  0  0  0  0  0  0  0  0
   -5.2851   23.5993  -27.8332 C   0  0  0  0  0  0  0  0  0  0  0  0
   -5.5281   25.0845  -27.8639 C   0  0  0  0  0  0  0  0  0  0  0  0
   -5.8817   25.5952  -29.2249 C   0  0  0  0  0  0  0  0  0  0  0  0
   -6.5809   25.5156  -26.8594 C   0  0  0  0  0  0  0  0  0  0  0  0
   -4.3331   25.7029  -27.4709 O   0  0  0  0  0  0  0  0  0  0  0  0
   -3.6938   25.7243  -28.2090 H   0  0  0  0  0  0  0  0  0  0  0  0
 25 26  1  0  0  0
 26 17  1  0  0  0
 17 18  2  0  0  0
 18 19  1  0  0  0
 19 27  1  0  0  0
 27 28  1  0  0  0
 19 20  2  0  0  0
 20 21  1  0  0  0
 20 22  1  0  0  0
 22 23  2  0  0  0
 23 24  1  0  0  0
 22 10  1  0  0  0
 10 11  1  0  0  0
 11 12  2  0  0  0
 12 13  1  0  0  0
 13 14  2  0  0  0
 14 15  1  0  0  0
 15 16  2  0  0  0
 12  1  1  0  0  0
  1  2  2  0  0  0
  2  3  1  0  0  0
  3  4  2  0  0  0
  4  5  1  0  0  0
  5  6  2  0  0  0
  6  7  1  0  0  0
  3 29  1  0  0  0
 29 30  1  0  0  0
 30 31  2  0  0  0
 31 32  1  0  0  0
 32 34  1  0  0  0
 34 35  1  0  0  0
 35 36  1  0  0  0
 35 37  1  0  0  0
 35 38  1  0  0  0
 32 33  1  0  0  0
 23 17  1  0  0  0
 15 10  1  0  0  0
  6  1  1  0  0  0
 33 29  2  0  0  0
  7  8  1  0  0  0
  7  9  1  0  0  0
 38 39  1  0  0  0
M  END
> <minimizedAffinity>
-6.83423

> <CNNscore>
0.1151367053

> <CNNaffinity>
6.7806978226

> <CNN_VS>
0.7807071805

> <CNNaffinity_variance>
0.0400331765

$$$$
[H]c1nc(N([H])[H])c2c(-c3sc4c(OC([H])([H])[H])c([H])c(C([H])([H])[H])c([H])c4c3[H])c(C([H])([H])N([H])C(=O)C([H])([H])[H])c(C([H])([H])N3C([H])([H])C([H])([H])N([H])C([H])([H])C3([H])[H])n2n1


 38 42  0  0  0  0  0  0  0  0999 V2000
   -2.0243   22.2433  -25.0134 C   0  0  0  0  0  0  0  0  0  0  0  0
   -3.3491   22.2194  -25.5335 C   0  0  0  0  0  0  0  0  0  0  0  0
   -3.2386   22.5347  -26.8701 C   0  0  0  0  0  0  0  0  0  0  0  0
   -1.9424   22.7417  -27.1819 N   0  0  0  0  0  0  0  0  0  0  0  0
   -1.3446   23.0576  -28.3431 N   0  0  0  0  0  0  0  0  0  0  0  0
   -0.0365   23.2236  -28.4868 C   0  0  0  0  0  0  0  0  0  0  0  0
    0.7261   23.0655  -27.4025 N   0  0  0  0  0  0  0  0  0  0  0  0
    0.1378   22.7421  -26.2086 C   0  0  0  0  0  0  0  0  0  0  0  0
    1.0334   22.6508  -25.1361 N   0  0  0  0  0  0  0  0  0  0  0  0
   -1.2302   22.5690  -26.0795 C   0  0  0  0  0  0  0  0  0  0  0  0
    1.7114   21.8764  -25.0650 H   0  0  0  0  0  0  0  0  0  0  0  0
    1.0455   23.3806  -24.3827 H   0  0  0  0  0  0  0  0  0  0  0  0
   -1.4969   22.1467  -19.6026 C   0  0  0  0  0  0  0  0  0  0  0  0
   -0.7480   21.3068  -18.8207 C   0  0  0  0  0  0  0  0  0  0  0  0
   -0.0113   20.3642  -19.5075 C   0  0  0  0  0  0  0  0  0  0  0  0
    0.8132   19.4401  -18.6464 C   0  0  0  0  0  0  0  0  0  0  0  0
    0.0033   20.2369  -20.8781 C   0  0  0  0  0  0  0  0  0  0  0  0
   -0.7688   21.1037  -21.6717 C   0  0  0  0  0  0  0  0  0  0  0  0
   -0.8582   21.1029  -23.0155 C   0  0  0  0  0  0  0  0  0  0  0  0
   -1.6696   22.0365  -23.5992 C   0  0  0  0  0  0  0  0  0  0  0  0
   -2.2805   22.8787  -22.2520 S   0  0  0  0  0  0  0  0  0  0  0  0
   -1.4888   22.0262  -20.9856 C   0  0  0  0  0  0  0  0  0  0  0  0
   -3.2411   22.7639  -18.0693 C   0  0  0  0  0  0  0  0  0  0  0  0
   -2.2715   23.1258  -19.0313 O   0  0  0  0  0  0  0  0  0  0  0  0
   -4.4606   21.7908  -24.7037 C   0  0  0  0  0  0  0  0  0  0  0  0
   -5.4933   22.6523  -24.3098 N   0  0  0  0  0  0  0  0  0  0  0  0
   -6.1655   22.6069  -23.0711 C   0  0  0  0  0  0  0  0  0  0  0  0
   -7.2470   23.5663  -22.7443 C   0  0  0  0  0  0  0  0  0  0  0  0
   -5.8488   21.7389  -22.2190 O   0  0  0  0  0  0  0  0  0  0  0  0
   -5.7899   23.4049  -25.0155 H   0  0  0  0  0  0  0  0  0  0  0  0
   -4.3318   22.5789  -27.8646 C   0  0  0  0  0  0  0  0  0  0  0  0
   -4.5986   23.9814  -28.2736 N   0  0  0  0  0  0  0  0  0  0  0  0
   -5.3800   23.8974  -29.5528 C   0  0  0  0  0  0  0  0  0  0  0  0
   -5.5249   25.3036  -30.0260 C   0  0  0  0  0  0  0  0  0  0  0  0
   -5.5456   26.2997  -29.0042 N   0  0  0  0  0  0  0  0  0  0  0  0
   -6.0944   25.8655  -27.7373 C   0  0  0  0  0  0  0  0  0  0  0  0
   -5.6355   24.5127  -27.3335 C   0  0  0  0  0  0  0  0  0  0  0  0
   -6.0590   27.1313  -29.3311 H   0  0  0  0  0  0  0  0  0  0  0  0
 23 24  1  0  0  0
 24 13  1  0  0  0
 13 14  2  0  0  0
 14 15  1  0  0  0
 15 16  1  0  0  0
 15 17  2  0  0  0
 17 18  1  0  0  0
 18 19  1  0  0  0
 19 20  2  0  0  0
 20 21  1  0  0  0
 21 22  1  0  0  0
 20  1  1  0  0  0
  1  2  1  0  0  0
  2 25  1  0  0  0
 25 26  1  0  0  0
 26 27  1  0  0  0
 27 28  1  0  0  0
 27 29  2  0  0  0
  2  3  2  0  0  0
  3 31  1  0  0  0
 31 32  1  0  0  0
 32 33  1  0  0  0
 33 34  1  0  0  0
 34 35  1  0  0  0
 35 36  1  0  0  0
 36 37  1  0  0  0
  3  4  1  0  0  0
  4  5  1  0  0  0
  5  6  2  0  0  0
  6  7  1  0  0  0
  7  8  2  0  0  0
  8  9  1  0  0  0
  8 10  1  0  0  0
 22 13  1  0  0  0
 10  1  2  0  0  0
 22 18  2  0  0  0
 37 32  1  0  0  0
 10  4  1  0  0  0
 26 30  1  0  0  0
 35 38  1  0  0  0
  9 11  1  0  0  0
  9 12  1  0  0  0
M  END
> <minimizedAffinity>
-8.48080

> <CNNscore>
0.7148507237

> <CNNaffinity>
7.5331830978

> <CNN_VS>
5.3851013184

> <CNNaffinity_variance>
0.0794511586

$$$$
[H]c1nc(N([H])[H])c2c(-c3sc4c(OC([H])([H])[H])c([H])c(C([H])([H])[H])c([H])c4c3[H])c(C([H])([H])N([H])C(=O)C([H])([H])[H])c(C([H])([H])N3C([H])([H])C([H])([H])N([H])C([H])([H])C3([H])[H])n2n1


 38 42  0  0  0  0  0  0  0  0999 V2000
   -1.6780   21.9432  -24.0283 C   0  0  0  0  0  0  0  0  0  0  0  0
   -3.0764   22.1176  -24.2289 C   0  0  0  0  0  0  0  0  0  0  0  0
   -3.2273   22.4980  -25.5444 C   0  0  0  0  0  0  0  0  0  0  0  0
   -2.0185   22.5594  -26.1406 N   0  0  0  0  0  0  0  0  0  0  0  0
   -1.6597   22.8684  -27.3982 N   0  0  0  0  0  0  0  0  0  0  0  0
   -0.4072   22.8774  -27.8348 C   0  0  0  0  0  0  0  0  0  0  0  0
    0.5507   22.5586  -26.9613 N   0  0  0  0  0  0  0  0  0  0  0  0
    0.2074   22.2389  -25.6745 C   0  0  0  0  0  0  0  0  0  0  0  0
    1.3000   21.9704  -24.8411 N   0  0  0  0  0  0  0  0  0  0  0  0
   -1.1071   22.2314  -25.2383 C   0  0  0  0  0  0  0  0  0  0  0  0
    1.8648   21.1141  -24.9524 H   0  0  0  0  0  0  0  0  0  0  0  0
    1.5805   22.6453  -24.0886 H   0  0  0  0  0  0  0  0  0  0  0  0
    0.4280   21.6903  -19.0218 C   0  0  0  0  0  0  0  0  0  0  0  0
    0.8518   20.5955  -18.3152 C   0  0  0  0  0  0  0  0  0  0  0  0
    0.7433   19.3899  -18.9769 C   0  0  0  0  0  0  0  0  0  0  0  0
    1.2102   18.1850  -18.1988 C   0  0  0  0  0  0  0  0  0  0  0  0
    0.2514   19.2462  -20.2546 C   0  0  0  0  0  0  0  0  0  0  0  0
   -0.1810   20.3760  -20.9714 C   0  0  0  0  0  0  0  0  0  0  0  0
   -0.6834   20.3954  -22.2208 C   0  0  0  0  0  0  0  0  0  0  0  0
   -1.0462   21.6071  -22.7413 C   0  0  0  0  0  0  0  0  0  0  0  0
   -0.6763   22.6740  -21.4676 S   0  0  0  0  0  0  0  0  0  0  0  0
   -0.0696   21.5556  -20.3108 C   0  0  0  0  0  0  0  0  0  0  0  0
    1.7205   23.6352  -18.4550 C   0  0  0  0  0  0  0  0  0  0  0  0
    0.4877   22.9446  -18.4667 O   0  0  0  0  0  0  0  0  0  0  0  0
   -4.0207   21.7819  -23.1786 C   0  0  0  0  0  0  0  0  0  0  0  0
   -5.0752   22.6257  -22.8044 N   0  0  0  0  0  0  0  0  0  0  0  0
   -4.9386   23.8348  -22.0918 C   0  0  0  0  0  0  0  0  0  0  0  0
   -6.1177   24.6626  -21.7433 C   0  0  0  0  0  0  0  0  0  0  0  0
   -3.7978   24.2282  -21.7401 O   0  0  0  0  0  0  0  0  0  0  0  0
   -6.0638   22.3180  -23.0877 H   0  0  0  0  0  0  0  0  0  0  0  0
   -4.4995   22.7400  -26.2578 C   0  0  0  0  0  0  0  0  0  0  0  0
   -5.1987   23.9150  -25.6783 N   0  0  0  0  0  0  0  0  0  0  0  0
   -4.9530   25.0519  -26.6275 C   0  0  0  0  0  0  0  0  0  0  0  0
   -5.5409   26.2547  -25.9717 C   0  0  0  0  0  0  0  0  0  0  0  0
   -6.6491   26.0068  -25.1074 N   0  0  0  0  0  0  0  0  0  0  0  0
   -7.4630   24.8656  -25.4677 C   0  0  0  0  0  0  0  0  0  0  0  0
   -6.6645   23.6825  -25.8757 C   0  0  0  0  0  0  0  0  0  0  0  0
   -7.2452   26.8453  -25.0470 H   0  0  0  0  0  0  0  0  0  0  0  0
 23 24  1  0  0  0
 24 13  1  0  0  0
 13 14  2  0  0  0
 14 15  1  0  0  0
 15 16  1  0  0  0
 15 17  2  0  0  0
 17 18  1  0  0  0
 18 19  1  0  0  0
 19 20  2  0  0  0
 20 21  1  0  0  0
 21 22  1  0  0  0
 20  1  1  0  0  0
  1  2  1  0  0  0
  2 25  1  0  0  0
 25 26  1  0  0  0
 26 27  1  0  0  0
 27 28  1  0  0  0
 27 29  2  0  0  0
  2  3  2  0  0  0
  3 31  1  0  0  0
 31 32  1  0  0  0
 32 33  1  0  0  0
 33 34  1  0  0  0
 34 35  1  0  0  0
 35 36  1  0  0  0
 36 37  1  0  0  0
  3  4  1  0  0  0
  4  5  1  0  0  0
  5  6  2  0  0  0
  6  7  1  0  0  0
  7  8  2  0  0  0
  8  9  1  0  0  0
  8 10  1  0  0  0
 22 13  1  0  0  0
 10  1  2  0  0  0
 22 18  2  0  0  0
 37 32  1  0  0  0
 10  4  1  0  0  0
 26 30  1  0  0  0
 35 38  1  0  0  0
  9 11  1  0  0  0
  9 12  1  0  0  0
M  END
> <minimizedAffinity>
-7.94937

> <CNNscore>
0.6859185696

> <CNNaffinity>
7.2841629982

> <CNN_VS>
4.9963426590

> <CNNaffinity_variance>
0.0228527319

$$$$
[H]c1nc(N([H])[H])c2c(-c3sc4c(OC([H])([H])[H])c([H])c(C([H])([H])[H])c([H])c4c3[H])c(C([H])([H])N([H])C(=O)C([H])([H])[H])c(C([H])([H])N3C([H])([H])C([H])([H])N([H])C([H])([H])C3([H])[H])n2n1


 38 42  0  0  0  0  0  0  0  0999 V2000
   -2.1561   22.1808  -24.8766 C   0  0  0  0  0  0  0  0  0  0  0  0
   -3.4004   22.2280  -25.5661 C   0  0  0  0  0  0  0  0  0  0  0  0
   -3.0982   22.5290  -26.8761 C   0  0  0  0  0  0  0  0  0  0  0  0
   -1.7627   22.6614  -27.0148 N   0  0  0  0  0  0  0  0  0  0  0  0
   -1.0010   22.9367  -28.0870 N   0  0  0  0  0  0  0  0  0  0  0  0
    0.3219   23.0286  -28.0575 C   0  0  0  0  0  0  0  0  0  0  0  0
    0.9256   22.8343  -26.8828 N   0  0  0  0  0  0  0  0  0  0  0  0
    0.1687   22.5511  -25.7770 C   0  0  0  0  0  0  0  0  0  0  0  0
    0.9093   22.4160  -24.5964 N   0  0  0  0  0  0  0  0  0  0  0  0
   -1.2120   22.4555  -25.8287 C   0  0  0  0  0  0  0  0  0  0  0  0
    1.5276   21.6054  -24.4381 H   0  0  0  0  0  0  0  0  0  0  0  0
    0.8635   23.1484  -23.8467 H   0  0  0  0  0  0  0  0  0  0  0  0
   -0.7184   20.8618  -19.8014 C   0  0  0  0  0  0  0  0  0  0  0  0
   -1.2286   21.3126  -18.6123 C   0  0  0  0  0  0  0  0  0  0  0  0
   -2.2652   22.2162  -18.7215 C   0  0  0  0  0  0  0  0  0  0  0  0
   -2.8267   22.7120  -17.4123 C   0  0  0  0  0  0  0  0  0  0  0  0
   -2.7841   22.6631  -19.9157 C   0  0  0  0  0  0  0  0  0  0  0  0
   -2.2535   22.1944  -21.1306 C   0  0  0  0  0  0  0  0  0  0  0  0
   -2.6519   22.5368  -22.3708 C   0  0  0  0  0  0  0  0  0  0  0  0
   -2.0020   21.9626  -23.4284 C   0  0  0  0  0  0  0  0  0  0  0  0
   -0.8571   20.9691  -22.6542 S   0  0  0  0  0  0  0  0  0  0  0  0
   -1.2349   21.3065  -21.0109 C   0  0  0  0  0  0  0  0  0  0  0  0
    1.6450   20.4325  -19.7383 C   0  0  0  0  0  0  0  0  0  0  0  0
    0.3161   19.9593  -19.8191 O   0  0  0  0  0  0  0  0  0  0  0  0
   -4.6335   21.8669  -24.8900 C   0  0  0  0  0  0  0  0  0  0  0  0
   -5.6080   22.8074  -24.5301 N   0  0  0  0  0  0  0  0  0  0  0  0
   -6.3397   22.8031  -23.3246 C   0  0  0  0  0  0  0  0  0  0  0  0
   -7.3515   23.8462  -23.0324 C   0  0  0  0  0  0  0  0  0  0  0  0
   -6.1374   21.9009  -22.4733 O   0  0  0  0  0  0  0  0  0  0  0  0
   -5.8068   23.5912  -25.2361 H   0  0  0  0  0  0  0  0  0  0  0  0
   -4.0473   22.6285  -28.0054 C   0  0  0  0  0  0  0  0  0  0  0  0
   -4.9503   23.7924  -27.8173 N   0  0  0  0  0  0  0  0  0  0  0  0
   -4.1115   24.8699  -27.1934 C   0  0  0  0  0  0  0  0  0  0  0  0
   -5.0545   25.9822  -26.8840 C   0  0  0  0  0  0  0  0  0  0  0  0
   -6.1885   26.0873  -27.7442 N   0  0  0  0  0  0  0  0  0  0  0  0
   -5.9719   25.6319  -29.1008 C   0  0  0  0  0  0  0  0  0  0  0  0
   -5.1983   24.3672  -29.1772 C   0  0  0  0  0  0  0  0  0  0  0  0
   -6.5307   27.0592  -27.7613 H   0  0  0  0  0  0  0  0  0  0  0  0
 23 24  1  0  0  0
 24 13  1  0  0  0
 13 14  2  0  0  0
 14 15  1  0  0  0
 15 16  1  0  0  0
 15 17  2  0  0  0
 17 18  1  0  0  0
 18 19  1  0  0  0
 19 20  2  0  0  0
 20 21  1  0  0  0
 21 22  1  0  0  0
 20  1  1  0  0  0
  1  2  1  0  0  0
  2 25  1  0  0  0
 25 26  1  0  0  0
 26 27  1  0  0  0
 27 28  1  0  0  0
 27 29  2  0  0  0
  2  3  2  0  0  0
  3 31  1  0  0  0
 31 32  1  0  0  0
 32 33  1  0  0  0
 33 34  1  0  0  0
 34 35  1  0  0  0
 35 36  1  0  0  0
 36 37  1  0  0  0
  3  4  1  0  0  0
  4  5  1  0  0  0
  5  6  2  0  0  0
  6  7  1  0  0  0
  7  8  2  0  0  0
  8  9  1  0  0  0
  8 10  1  0  0  0
 22 13  1  0  0  0
 10  1  2  0  0  0
 22 18  2  0  0  0
 37 32  1  0  0  0
 10  4  1  0  0  0
 26 30  1  0  0  0
 35 38  1  0  0  0
  9 11  1  0  0  0
  9 12  1  0  0  0
M  END
> <minimizedAffinity>
-7.84502

> <CNNscore>
0.6300741434

> <CNNaffinity>
7.4604544640

> <CNN_VS>
4.7006392479

> <CNNaffinity_variance>
0.1431065798

$$$$
[H]c1nc(N([H])[H])c2c(-c3sc4c(OC([H])([H])[H])c([H])c(C([H])([H])[H])c([H])c4c3[H])c(C([H])([H])N([H])C(=O)C([H])([H])[H])c(C([H])([H])N3C([H])([H])C([H])([H])N([H])C([H])([H])C3([H])[H])n2n1


 38 42  0  0  0  0  0  0  0  0999 V2000
   -1.5015   21.8231  -23.6191 C   0  0  0  0  0  0  0  0  0  0  0  0
   -2.9019   21.9785  -23.8211 C   0  0  0  0  0  0  0  0  0  0  0  0
   -3.0602   22.3098  -25.1490 C   0  0  0  0  0  0  0  0  0  0  0  0
   -1.8539   22.3597  -25.7512 N   0  0  0  0  0  0  0  0  0  0  0  0
   -1.5017   22.6260  -27.0203 N   0  0  0  0  0  0  0  0  0  0  0  0
   -0.2508   22.6297  -27.4613 C   0  0  0  0  0  0  0  0  0  0  0  0
    0.7126   22.3507  -26.5802 N   0  0  0  0  0  0  0  0  0  0  0  0
    0.3761   22.0750  -25.2815 C   0  0  0  0  0  0  0  0  0  0  0  0
    1.4737   21.8459  -24.4427 N   0  0  0  0  0  0  0  0  0  0  0  0
   -0.9369   22.0722  -24.8408 C   0  0  0  0  0  0  0  0  0  0  0  0
    2.0453   20.9909  -24.5250 H   0  0  0  0  0  0  0  0  0  0  0  0
    1.7507   22.5499  -23.7161 H   0  0  0  0  0  0  0  0  0  0  0  0
    1.1097   19.8602  -19.2726 C   0  0  0  0  0  0  0  0  0  0  0  0
    1.4925   20.5077  -18.1272 C   0  0  0  0  0  0  0  0  0  0  0  0
    1.1506   21.8426  -18.0636 C   0  0  0  0  0  0  0  0  0  0  0  0
    1.5719   22.5549  -16.8025 C   0  0  0  0  0  0  0  0  0  0  0  0
    0.4742   22.5196  -19.0530 C   0  0  0  0  0  0  0  0  0  0  0  0
    0.0857   21.8461  -20.2247 C   0  0  0  0  0  0  0  0  0  0  0  0
   -0.5766   22.3692  -21.2743 C   0  0  0  0  0  0  0  0  0  0  0  0
   -0.8627   21.5391  -22.3231 C   0  0  0  0  0  0  0  0  0  0  0  0
   -0.1945   20.0608  -21.8079 S   0  0  0  0  0  0  0  0  0  0  0  0
    0.4272   20.5343  -20.2761 C   0  0  0  0  0  0  0  0  0  0  0  0
    2.6611   18.1563  -19.9539 C   0  0  0  0  0  0  0  0  0  0  0  0
    1.3947   18.5289  -19.4496 O   0  0  0  0  0  0  0  0  0  0  0  0
   -3.8400   21.6730  -22.7560 C   0  0  0  0  0  0  0  0  0  0  0  0
   -4.8976   22.5232  -22.4057 N   0  0  0  0  0  0  0  0  0  0  0  0
   -4.7592   23.7970  -21.8169 C   0  0  0  0  0  0  0  0  0  0  0  0
   -5.9422   24.6258  -21.4840 C   0  0  0  0  0  0  0  0  0  0  0  0
   -3.6137   24.2486  -21.5650 O   0  0  0  0  0  0  0  0  0  0  0  0
   -5.8902   22.1668  -22.6058 H   0  0  0  0  0  0  0  0  0  0  0  0
   -4.3367   22.5151  -25.8662 C   0  0  0  0  0  0  0  0  0  0  0  0
   -4.9871   23.7697  -25.4097 N   0  0  0  0  0  0  0  0  0  0  0  0
   -4.6794   24.7998  -26.4576 C   0  0  0  0  0  0  0  0  0  0  0  0
   -5.2181   26.0842  -25.9262 C   0  0  0  0  0  0  0  0  0  0  0  0
   -6.3456   25.9690  -25.0589 N   0  0  0  0  0  0  0  0  0  0  0  0
   -7.2073   24.8365  -25.3226 C   0  0  0  0  0  0  0  0  0  0  0  0
   -6.4599   23.5856  -25.6061 C   0  0  0  0  0  0  0  0  0  0  0  0
   -6.9030   26.8353  -25.0862 H   0  0  0  0  0  0  0  0  0  0  0  0
 23 24  1  0  0  0
 24 13  1  0  0  0
 13 14  2  0  0  0
 14 15  1  0  0  0
 15 16  1  0  0  0
 15 17  2  0  0  0
 17 18  1  0  0  0
 18 19  1  0  0  0
 19 20  2  0  0  0
 20 21  1  0  0  0
 21 22  1  0  0  0
 20  1  1  0  0  0
  1  2  1  0  0  0
  2 25  1  0  0  0
 25 26  1  0  0  0
 26 27  1  0  0  0
 27 28  1  0  0  0
 27 29  2  0  0  0
  2  3  2  0  0  0
  3 31  1  0  0  0
 31 32  1  0  0  0
 32 33  1  0  0  0
 33 34  1  0  0  0
 34 35  1  0  0  0
 35 36  1  0  0  0
 36 37  1  0  0  0
  3  4  1  0  0  0
  4  5  1  0  0  0
  5  6  2  0  0  0
  6  7  1  0  0  0
  7  8  2  0  0  0
  8  9  1  0  0  0
  8 10  1  0  0  0
 22 13  1  0  0  0
 10  1  2  0  0  0
 22 18  2  0  0  0
 37 32  1  0  0  0
 10  4  1  0  0  0
 26 30  1  0  0  0
 35 38  1  0  0  0
  9 11  1  0  0  0
  9 12  1  0  0  0
M  END
> <minimizedAffinity>
-7.70447

> <CNNscore>
0.6111675501

> <CNNaffinity>
7.1673951149

> <CNN_VS>
4.3804793358

> <CNNaffinity_variance>
0.0560934655

$$$$
[H]c1nc(N([H])[H])c2c(-c3sc4c(OC([H])([H])[H])c([H])c(C([H])([H])[H])c([H])c4c3[H])c(C([H])([H])N([H])C(=O)C([H])([H])[H])c(C([H])([H])N3C([H])([H])C([H])([H])N([H])C([H])([H])C3([H])[H])n2n1


 38 42  0  0  0  0  0  0  0  0999 V2000
   -0.8826   21.8558  -22.4244 C   0  0  0  0  0  0  0  0  0  0  0  0
   -1.2401   21.3320  -21.1500 C   0  0  0  0  0  0  0  0  0  0  0  0
   -0.1418   20.6286  -20.7062 C   0  0  0  0  0  0  0  0  0  0  0  0
    0.8439   20.6992  -21.6247 N   0  0  0  0  0  0  0  0  0  0  0  0
    2.0875   20.1904  -21.6383 N   0  0  0  0  0  0  0  0  0  0  0  0
    2.9503   20.3579  -22.6317 C   0  0  0  0  0  0  0  0  0  0  0  0
    2.5476   21.0787  -23.6808 N   0  0  0  0  0  0  0  0  0  0  0  0
    1.2843   21.6079  -23.6874 C   0  0  0  0  0  0  0  0  0  0  0  0
    0.9612   22.3017  -24.8600 N   0  0  0  0  0  0  0  0  0  0  0  0
    0.3988   21.4251  -22.6384 C   0  0  0  0  0  0  0  0  0  0  0  0
    1.3936   23.2112  -25.0842 H   0  0  0  0  0  0  0  0  0  0  0  0
    0.2783   21.9030  -25.5493 H   0  0  0  0  0  0  0  0  0  0  0  0
   -4.2382   23.7883  -26.2413 C   0  0  0  0  0  0  0  0  0  0  0  0
   -4.9618   24.9519  -26.2492 C   0  0  0  0  0  0  0  0  0  0  0  0
   -4.8009   25.7525  -25.1374 C   0  0  0  0  0  0  0  0  0  0  0  0
   -5.5974   27.0334  -25.1466 C   0  0  0  0  0  0  0  0  0  0  0  0
   -3.9844   25.4477  -24.0718 C   0  0  0  0  0  0  0  0  0  0  0  0
   -3.2459   24.2511  -24.0733 C   0  0  0  0  0  0  0  0  0  0  0  0
   -2.4107   23.8170  -23.1100 C   0  0  0  0  0  0  0  0  0  0  0  0
   -1.7830   22.6177  -23.3059 C   0  0  0  0  0  0  0  0  0  0  0  0
   -2.3836   22.1382  -24.8247 S   0  0  0  0  0  0  0  0  0  0  0  0
   -3.4121   23.4721  -25.1713 C   0  0  0  0  0  0  0  0  0  0  0  0
   -3.4761   23.1007  -28.4140 C   0  0  0  0  0  0  0  0  0  0  0  0
   -4.3170   22.9109  -27.2943 O   0  0  0  0  0  0  0  0  0  0  0  0
   -2.5062   21.6870  -20.5346 C   0  0  0  0  0  0  0  0  0  0  0  0
   -3.3357   20.7496  -19.9044 N   0  0  0  0  0  0  0  0  0  0  0  0
   -4.6392   21.0028  -19.4298 C   0  0  0  0  0  0  0  0  0  0  0  0
   -5.4424   19.9419  -18.7769 C   0  0  0  0  0  0  0  0  0  0  0  0
   -5.1400   22.1485  -19.5581 O   0  0  0  0  0  0  0  0  0  0  0  0
   -2.9376   19.7608  -19.7771 H   0  0  0  0  0  0  0  0  0  0  0  0
    0.0084   19.9483  -19.4021 C   0  0  0  0  0  0  0  0  0  0  0  0
   -0.8515   18.7386  -19.3509 N   0  0  0  0  0  0  0  0  0  0  0  0
    0.0615   17.5717  -19.5924 C   0  0  0  0  0  0  0  0  0  0  0  0
   -0.8279   16.3782  -19.6749 C   0  0  0  0  0  0  0  0  0  0  0  0
   -2.0352   16.4547  -18.9177 N   0  0  0  0  0  0  0  0  0  0  0  0
   -1.9549   17.2591  -17.7174 C   0  0  0  0  0  0  0  0  0  0  0  0
   -1.2152   18.5312  -17.9135 C   0  0  0  0  0  0  0  0  0  0  0  0
   -2.3597   15.5078  -18.6726 H   0  0  0  0  0  0  0  0  0  0  0  0
 23 24  1  0  0  0
 24 13  1  0  0  0
 13 14  2  0  0  0
 14 15  1  0  0  0
 15 16  1  0  0  0
 15 17  2  0  0  0
 17 18  1  0  0  0
 18 19  1  0  0  0
 19 20  2  0  0  0
 20 21  1  0  0  0
 21 22  1  0  0  0
 20  1  1  0  0  0
  1  2  1  0  0  0
  2 25  1  0  0  0
 25 26  1  0  0  0
 26 27  1  0  0  0
 27 28  1  0  0  0
 27 29  2  0  0  0
  2  3  2  0  0  0
  3 31  1  0  0  0
 31 32  1  0  0  0
 32 33  1  0  0  0
 33 34  1  0  0  0
 34 35  1  0  0  0
 35 36  1  0  0  0
 36 37  1  0  0  0
  3  4  1  0  0  0
  4  5  1  0  0  0
  5  6  2  0  0  0
  6  7  1  0  0  0
  7  8  2  0  0  0
  8  9  1  0  0  0
  8 10  1  0  0  0
 22 13  1  0  0  0
 10  1  2  0  0  0
 22 18  2  0  0  0
 37 32  1  0  0  0
 10  4  1  0  0  0
 26 30  1  0  0  0
 35 38  1  0  0  0
  9 11  1  0  0  0
  9 12  1  0  0  0
M  END
> <minimizedAffinity>
-7.21139

> <CNNscore>
0.2895752490

> <CNNaffinity>
6.6361961365

> <CNN_VS>
1.9216781855

> <CNNaffinity_variance>
0.1078073010

$$$$
[H]c1nc(N([H])[H])c2c(-c3sc4c(OC([H])([H])[H])c([H])c(C([H])([H])[H])c([H])c4c3[H])c(C([H])([H])N([H])C(=O)C([H])([H])[H])c(C([H])([H])N3C([H])([H])C([H])([H])N([H])C([H])([H])C3([H])[H])n2n1


 38 42  0  0  0  0  0  0  0  0999 V2000
   -1.2042   21.9455  -22.8731 C   0  0  0  0  0  0  0  0  0  0  0  0
   -1.6006   21.5690  -21.5589 C   0  0  0  0  0  0  0  0  0  0  0  0
   -0.4871   21.0095  -20.9714 C   0  0  0  0  0  0  0  0  0  0  0  0
    0.5435   21.0291  -21.8419 N   0  0  0  0  0  0  0  0  0  0  0  0
    1.8158   20.6125  -21.7262 N   0  0  0  0  0  0  0  0  0  0  0  0
    2.7221   20.7093  -22.6898 C   0  0  0  0  0  0  0  0  0  0  0  0
    2.3355   21.2562  -23.8447 N   0  0  0  0  0  0  0  0  0  0  0  0
    1.0435   21.6889  -23.9841 C   0  0  0  0  0  0  0  0  0  0  0  0
    0.7450   22.1986  -25.2536 N   0  0  0  0  0  0  0  0  0  0  0  0
    0.1124   21.5826  -22.9644 C   0  0  0  0  0  0  0  0  0  0  0  0
    1.1307   23.0993  -25.5768 H   0  0  0  0  0  0  0  0  0  0  0  0
    0.1300   21.6657  -25.9155 H   0  0  0  0  0  0  0  0  0  0  0  0
   -4.4632   24.9264  -26.0443 C   0  0  0  0  0  0  0  0  0  0  0  0
   -4.9279   24.6564  -27.3047 C   0  0  0  0  0  0  0  0  0  0  0  0
   -4.5237   23.4487  -27.8348 C   0  0  0  0  0  0  0  0  0  0  0  0
   -5.0357   23.1518  -29.2222 C   0  0  0  0  0  0  0  0  0  0  0  0
   -3.7128   22.5467  -27.1839 C   0  0  0  0  0  0  0  0  0  0  0  0
   -3.2411   22.8332  -25.8905 C   0  0  0  0  0  0  0  0  0  0  0  0
   -2.4452   22.0559  -25.1312 C   0  0  0  0  0  0  0  0  0  0  0  0
   -2.0990   22.5197  -23.8920 C   0  0  0  0  0  0  0  0  0  0  0  0
   -2.8935   24.0239  -23.8329 S   0  0  0  0  0  0  0  0  0  0  0  0
   -3.6449   24.0231  -25.3796 C   0  0  0  0  0  0  0  0  0  0  0  0
   -6.0987   26.2457  -24.8786 C   0  0  0  0  0  0  0  0  0  0  0  0
   -4.7991   26.0986  -25.4134 O   0  0  0  0  0  0  0  0  0  0  0  0
   -2.9202   21.9106  -21.0592 C   0  0  0  0  0  0  0  0  0  0  0  0
   -3.7982   20.9623  -20.5172 N   0  0  0  0  0  0  0  0  0  0  0  0
   -4.2672   20.9513  -19.1874 C   0  0  0  0  0  0  0  0  0  0  0  0
   -5.1993   19.9040  -18.7066 C   0  0  0  0  0  0  0  0  0  0  0  0
   -3.8935   21.8435  -18.3849 O   0  0  0  0  0  0  0  0  0  0  0  0
   -4.1355   20.1846  -21.1758 H   0  0  0  0  0  0  0  0  0  0  0  0
   -0.3693   20.5181  -19.5819 C   0  0  0  0  0  0  0  0  0  0  0  0
   -1.0569   19.2096  -19.4390 N   0  0  0  0  0  0  0  0  0  0  0  0
    0.0144   18.1645  -19.5570 C   0  0  0  0  0  0  0  0  0  0  0  0
   -0.7004   16.8563  -19.5492 C   0  0  0  0  0  0  0  0  0  0  0  0
   -1.9303   16.8292  -18.8257 N   0  0  0  0  0  0  0  0  0  0  0  0
   -1.9988   17.7375  -17.7010 C   0  0  0  0  0  0  0  0  0  0  0  0
   -1.4341   19.0783  -17.9962 C   0  0  0  0  0  0  0  0  0  0  0  0
   -2.1298   15.8711  -18.5029 H   0  0  0  0  0  0  0  0  0  0  0  0
 23 24  1  0  0  0
 24 13  1  0  0  0
 13 14  2  0  0  0
 14 15  1  0  0  0
 15 16  1  0  0  0
 15 17  2  0  0  0
 17 18  1  0  0  0
 18 19  1  0  0  0
 19 20  2  0  0  0
 20 21  1  0  0  0
 21 22  1  0  0  0
 20  1  1  0  0  0
  1  2  1  0  0  0
  2 25  1  0  0  0
 25 26  1  0  0  0
 26 27  1  0  0  0
 27 28  1  0  0  0
 27 29  2  0  0  0
  2  3  2  0  0  0
  3 31  1  0  0  0
 31 32  1  0  0  0
 32 33  1  0  0  0
 33 34  1  0  0  0
 34 35  1  0  0  0
 35 36  1  0  0  0
 36 37  1  0  0  0
  3  4  1  0  0  0
  4  5  1  0  0  0
  5  6  2  0  0  0
  6  7  1  0  0  0
  7  8  2  0  0  0
  8  9  1  0  0  0
  8 10  1  0  0  0
 22 13  1  0  0  0
 10  1  2  0  0  0
 22 18  2  0  0  0
 37 32  1  0  0  0
 10  4  1  0  0  0
 26 30  1  0  0  0
 35 38  1  0  0  0
  9 11  1  0  0  0
  9 12  1  0  0  0
M  END
> <minimizedAffinity>
-7.44976

> <CNNscore>
0.2670935094

> <CNNaffinity>
6.7599577904

> <CNN_VS>
1.8055408001

> <CNNaffinity_variance>
0.2278685123

$$$$
[H]c1nc(N([H])[H])c2c(-c3sc4c(OC([H])([H])[H])c([H])c(C([H])([H])[H])c([H])c4c3[H])c(C([H])([H])N([H])C(=O)C([H])([H])[H])c(C([H])([H])N3C([H])([H])C([H])([H])N([H])C([H])([H])C3([H])[H])n2n1


 38 42  0  0  0  0  0  0  0  0999 V2000
   -2.2195   21.7870  -22.8237 C   0  0  0  0  0  0  0  0  0  0  0  0
   -3.6332   21.8454  -22.6686 C   0  0  0  0  0  0  0  0  0  0  0  0
   -4.1433   22.0982  -23.9232 C   0  0  0  0  0  0  0  0  0  0  0  0
   -3.1336   22.1915  -24.8132 N   0  0  0  0  0  0  0  0  0  0  0  0
   -3.1315   22.4141  -26.1384 N   0  0  0  0  0  0  0  0  0  0  0  0
   -2.0350   22.4723  -26.8825 C   0  0  0  0  0  0  0  0  0  0  0  0
   -0.8637   22.2983  -26.2659 N   0  0  0  0  0  0  0  0  0  0  0  0
   -0.8426   22.0689  -24.9157 C   0  0  0  0  0  0  0  0  0  0  0  0
    0.4440   21.9508  -24.3759 N   0  0  0  0  0  0  0  0  0  0  0  0
   -1.9991   22.0078  -24.1563 C   0  0  0  0  0  0  0  0  0  0  0  0
    1.0370   21.1295  -24.5718 H   0  0  0  0  0  0  0  0  0  0  0  0
    0.8428   22.7066  -23.7676 H   0  0  0  0  0  0  0  0  0  0  0  0
    1.5617   20.2298  -19.2402 C   0  0  0  0  0  0  0  0  0  0  0  0
    2.1470   20.9493  -18.2316 C   0  0  0  0  0  0  0  0  0  0  0  0
    1.6991   22.2473  -18.0981 C   0  0  0  0  0  0  0  0  0  0  0  0
    2.3435   23.0389  -16.9876 C   0  0  0  0  0  0  0  0  0  0  0  0
    0.7363   22.8230  -18.8958 C   0  0  0  0  0  0  0  0  0  0  0  0
    0.1416   22.0761  -19.9283 C   0  0  0  0  0  0  0  0  0  0  0  0
   -0.8070   22.4979  -20.7863 C   0  0  0  0  0  0  0  0  0  0  0  0
   -1.2570   21.6092  -21.7234 C   0  0  0  0  0  0  0  0  0  0  0  0
   -0.3381   20.2192  -21.3755 S   0  0  0  0  0  0  0  0  0  0  0  0
    0.5898   20.8015  -20.0500 C   0  0  0  0  0  0  0  0  0  0  0  0
    3.0486   18.6578  -20.2853 C   0  0  0  0  0  0  0  0  0  0  0  0
    1.9266   18.9262  -19.4694 O   0  0  0  0  0  0  0  0  0  0  0  0
   -4.2493   21.5374  -21.3906 C   0  0  0  0  0  0  0  0  0  0  0  0
   -5.0859   22.4344  -20.7127 N   0  0  0  0  0  0  0  0  0  0  0  0
   -6.4574   22.2338  -20.4539 C   0  0  0  0  0  0  0  0  0  0  0  0
   -7.2608   23.2434  -19.7243 C   0  0  0  0  0  0  0  0  0  0  0  0
   -7.0204   21.1804  -20.8454 O   0  0  0  0  0  0  0  0  0  0  0  0
   -4.6368   23.3458  -20.3662 H   0  0  0  0  0  0  0  0  0  0  0  0
   -5.5704   22.1878  -24.2993 C   0  0  0  0  0  0  0  0  0  0  0  0
   -5.9645   23.6072  -24.4875 N   0  0  0  0  0  0  0  0  0  0  0  0
   -6.6744   23.6674  -25.8090 C   0  0  0  0  0  0  0  0  0  0  0  0
   -6.9450   25.1131  -26.0522 C   0  0  0  0  0  0  0  0  0  0  0  0
   -7.1163   25.9141  -24.8836 N   0  0  0  0  0  0  0  0  0  0  0  0
   -7.6727   25.2201  -23.7420 C   0  0  0  0  0  0  0  0  0  0  0  0
   -7.0928   23.8687  -23.5388 C   0  0  0  0  0  0  0  0  0  0  0  0
   -7.6990   26.7360  -25.1002 H   0  0  0  0  0  0  0  0  0  0  0  0
 23 24  1  0  0  0
 24 13  1  0  0  0
 13 14  2  0  0  0
 14 15  1  0  0  0
 15 16  1  0  0  0
 15 17  2  0  0  0
 17 18  1  0  0  0
 18 19  1  0  0  0
 19 20  2  0  0  0
 20 21  1  0  0  0
 21 22  1  0  0  0
 20  1  1  0  0  0
  1  2  1  0  0  0
  2 25  1  0  0  0
 25 26  1  0  0  0
 26 27  1  0  0  0
 27 28  1  0  0  0
 27 29  2  0  0  0
  2  3  2  0  0  0
  3 31  1  0  0  0
 31 32  1  0  0  0
 32 33  1  0  0  0
 33 34  1  0  0  0
 34 35  1  0  0  0
 35 36  1  0  0  0
 36 37  1  0  0  0
  3  4  1  0  0  0
  4  5  1  0  0  0
  5  6  2  0  0  0
  6  7  1  0  0  0
  7  8  2  0  0  0
  8  9  1  0  0  0
  8 10  1  0  0  0
 22 13  1  0  0  0
 10  1  2  0  0  0
 22 18  2  0  0  0
 37 32  1  0  0  0
 10  4  1  0  0  0
 26 30  1  0  0  0
 35 38  1  0  0  0
  9 11  1  0  0  0
  9 12  1  0  0  0
M  END
> <minimizedAffinity>
-7.19468

> <CNNscore>
0.2357344478

> <CNNaffinity>
6.7842283249

> <CNN_VS>
1.5992763042

> <CNNaffinity_variance>
0.1013488546

$$$$
[H]c1nc(N([H])[H])c2c(-c3sc4c(OC([H])([H])[H])c([H])c(C([H])([H])[H])c([H])c4c3[H])c(C([H])([H])N([H])C(=O)C([H])([H])[H])c(C([H])([H])N3C([H])([H])C([H])([H])N([H])C([H])([H])C3([H])[H])n2n1


 38 42  0  0  0  0  0  0  0  0999 V2000
   -0.9440   21.8162  -22.3758 C   0  0  0  0  0  0  0  0  0  0  0  0
   -1.3166   21.2867  -21.1082 C   0  0  0  0  0  0  0  0  0  0  0  0
   -0.2264   20.5747  -20.6580 C   0  0  0  0  0  0  0  0  0  0  0  0
    0.7685   20.6457  -21.5665 N   0  0  0  0  0  0  0  0  0  0  0  0
    2.0095   20.1304  -21.5711 N   0  0  0  0  0  0  0  0  0  0  0  0
    2.8828   20.2993  -22.5551 C   0  0  0  0  0  0  0  0  0  0  0  0
    2.4941   21.0285  -23.6037 N   0  0  0  0  0  0  0  0  0  0  0  0
    1.2338   21.5644  -23.6193 C   0  0  0  0  0  0  0  0  0  0  0  0
    0.9257   22.2671  -24.7907 N   0  0  0  0  0  0  0  0  0  0  0  0
    0.3372   21.3800  -22.5800 C   0  0  0  0  0  0  0  0  0  0  0  0
    1.3650   23.1756  -25.0051 H   0  0  0  0  0  0  0  0  0  0  0  0
    0.2474   21.8762  -25.4889 H   0  0  0  0  0  0  0  0  0  0  0  0
   -4.2763   23.7804  -26.1969 C   0  0  0  0  0  0  0  0  0  0  0  0
   -4.9732   24.9601  -26.2146 C   0  0  0  0  0  0  0  0  0  0  0  0
   -4.7877   25.7697  -25.1132 C   0  0  0  0  0  0  0  0  0  0  0  0
   -5.5548   27.0683  -25.1332 C   0  0  0  0  0  0  0  0  0  0  0  0
   -3.9724   25.4588  -24.0486 C   0  0  0  0  0  0  0  0  0  0  0  0
   -3.2614   24.2456  -24.0399 C   0  0  0  0  0  0  0  0  0  0  0  0
   -2.4308   23.8038  -23.0761 C   0  0  0  0  0  0  0  0  0  0  0  0
   -1.8318   22.5882  -23.2613 C   0  0  0  0  0  0  0  0  0  0  0  0
   -2.4518   22.1049  -24.7711 S   0  0  0  0  0  0  0  0  0  0  0  0
   -3.4515   23.4579  -25.1278 C   0  0  0  0  0  0  0  0  0  0  0  0
   -3.5519   23.0584  -28.3713 C   0  0  0  0  0  0  0  0  0  0  0  0
   -4.3810   22.8929  -27.2391 O   0  0  0  0  0  0  0  0  0  0  0  0
   -2.5868   21.6446  -20.5028 C   0  0  0  0  0  0  0  0  0  0  0  0
   -3.4228   20.7094  -19.8779 N   0  0  0  0  0  0  0  0  0  0  0  0
   -4.7232   20.9699  -19.3989 C   0  0  0  0  0  0  0  0  0  0  0  0
   -5.5338   19.9108  -18.7522 C   0  0  0  0  0  0  0  0  0  0  0  0
   -5.2148   22.1205  -19.5179 O   0  0  0  0  0  0  0  0  0  0  0  0
   -3.0325   19.7166  -19.7586 H   0  0  0  0  0  0  0  0  0  0  0  0
   -0.0924   19.8858  -19.3567 C   0  0  0  0  0  0  0  0  0  0  0  0
    0.8932   20.5925  -18.4997 N   0  0  0  0  0  0  0  0  0  0  0  0
    0.0923   21.2972  -17.4434 C   0  0  0  0  0  0  0  0  0  0  0  0
    1.0750   22.1112  -16.6727 C   0  0  0  0  0  0  0  0  0  0  0  0
    2.4021   21.5888  -16.6193 N   0  0  0  0  0  0  0  0  0  0  0  0
    2.4947   20.1458  -16.6802 C   0  0  0  0  0  0  0  0  0  0  0  0
    1.5863   19.5429  -17.6877 C   0  0  0  0  0  0  0  0  0  0  0  0
    2.8811   21.9259  -15.7714 H   0  0  0  0  0  0  0  0  0  0  0  0
 23 24  1  0  0  0
 24 13  1  0  0  0
 13 14  2  0  0  0
 14 15  1  0  0  0
 15 16  1  0  0  0
 15 17  2  0  0  0
 17 18  1  0  0  0
 18 19  1  0  0  0
 19 20  2  0  0  0
 20 21  1  0  0  0
 21 22  1  0  0  0
 20  1  1  0  0  0
  1  2  1  0  0  0
  2 25  1  0  0  0
 25 26  1  0  0  0
 26 27  1  0  0  0
 27 28  1  0  0  0
 27 29  2  0  0  0
  2  3  2  0  0  0
  3 31  1  0  0  0
 31 32  1  0  0  0
 32 33  1  0  0  0
 33 34  1  0  0  0
 34 35  1  0  0  0
 35 36  1  0  0  0
 36 37  1  0  0  0
  3  4  1  0  0  0
  4  5  1  0  0  0
  5  6  2  0  0  0
  6  7  1  0  0  0
  7  8  2  0  0  0
  8  9  1  0  0  0
  8 10  1  0  0  0
 22 13  1  0  0  0
 10  1  2  0  0  0
 22 18  2  0  0  0
 37 32  1  0  0  0
 10  4  1  0  0  0
 26 30  1  0  0  0
 35 38  1  0  0  0
  9 11  1  0  0  0
  9 12  1  0  0  0
M  END
> <minimizedAffinity>
-7.13494

> <CNNscore>
0.2162593901

> <CNNaffinity>
6.5570693016

> <CNN_VS>
1.4180277586

> <CNNaffinity_variance>
0.0811824054

$$$$
[H]c1nc(N([H])[H])c2c(-c3sc4c(OC([H])([H])[H])c([H])c(C([H])([H])[H])c([H])c4c3[H])c(C([H])([H])N([H])C(=O)C([H])([H])[H])c(C([H])([H])N3C([H])([H])C([H])([H])N([H])C([H])([H])C3([H])[H])n2n1


 38 42  0  0  0  0  0  0  0  0999 V2000
   -0.8734   21.6234  -22.5484 C   0  0  0  0  0  0  0  0  0  0  0  0
   -1.2470   21.1145  -21.2727 C   0  0  0  0  0  0  0  0  0  0  0  0
   -0.1189   20.5146  -20.7573 C   0  0  0  0  0  0  0  0  0  0  0  0
    0.8992   20.6331  -21.6347 N   0  0  0  0  0  0  0  0  0  0  0  0
    2.1777   20.2238  -21.5769 N   0  0  0  0  0  0  0  0  0  0  0  0
    3.0693   20.4266  -22.5378 C   0  0  0  0  0  0  0  0  0  0  0  0
    2.6602   21.0792  -23.6283 N   0  0  0  0  0  0  0  0  0  0  0  0
    1.3613   21.5065  -23.7079 C   0  0  0  0  0  0  0  0  0  0  0  0
    1.0391   22.1345  -24.9173 N   0  0  0  0  0  0  0  0  0  0  0  0
    0.4459   21.2884  -22.6918 C   0  0  0  0  0  0  0  0  0  0  0  0
    1.4097   23.0675  -25.1552 H   0  0  0  0  0  0  0  0  0  0  0  0
    0.4212   21.6611  -25.6204 H   0  0  0  0  0  0  0  0  0  0  0  0
   -4.1369   24.8905  -25.4189 C   0  0  0  0  0  0  0  0  0  0  0  0
   -4.6777   24.6978  -26.6631 C   0  0  0  0  0  0  0  0  0  0  0  0
   -4.3613   23.4964  -27.2627 C   0  0  0  0  0  0  0  0  0  0  0  0
   -4.9570   23.2847  -28.6322 C   0  0  0  0  0  0  0  0  0  0  0  0
   -3.5642   22.5296  -26.6928 C   0  0  0  0  0  0  0  0  0  0  0  0
   -3.0140   22.7369  -25.4155 C   0  0  0  0  0  0  0  0  0  0  0  0
   -2.2202   21.8905  -24.7317 C   0  0  0  0  0  0  0  0  0  0  0  0
   -1.7891   22.2830  -23.4944 C   0  0  0  0  0  0  0  0  0  0  0  0
   -2.5039   23.8193  -23.3321 S   0  0  0  0  0  0  0  0  0  0  0  0
   -3.3319   23.9214  -24.8358 C   0  0  0  0  0  0  0  0  0  0  0  0
   -4.7559   27.2123  -25.4329 C   0  0  0  0  0  0  0  0  0  0  0  0
   -4.3818   26.0488  -24.7237 O   0  0  0  0  0  0  0  0  0  0  0  0
   -2.5634   21.3881  -20.7250 C   0  0  0  0  0  0  0  0  0  0  0  0
   -2.7720   22.2449  -19.6358 N   0  0  0  0  0  0  0  0  0  0  0  0
   -3.2515   21.8521  -18.3693 C   0  0  0  0  0  0  0  0  0  0  0  0
   -3.4372   22.8351  -17.2756 C   0  0  0  0  0  0  0  0  0  0  0  0
   -3.5303   20.6459  -18.1526 O   0  0  0  0  0  0  0  0  0  0  0  0
   -2.5454   23.2832  -19.7878 H   0  0  0  0  0  0  0  0  0  0  0  0
    0.0241   19.8907  -19.4245 C   0  0  0  0  0  0  0  0  0  0  0  0
    0.4801   20.8969  -18.4319 N   0  0  0  0  0  0  0  0  0  0  0  0
   -0.1720   20.5211  -17.1329 C   0  0  0  0  0  0  0  0  0  0  0  0
    0.1809   21.6104  -16.1784 C   0  0  0  0  0  0  0  0  0  0  0  0
    1.4249   22.2660  -16.4224 N   0  0  0  0  0  0  0  0  0  0  0  0
    2.4405   21.4410  -17.0407 C   0  0  0  0  0  0  0  0  0  0  0  0
    1.9152   20.5890  -18.1371 C   0  0  0  0  0  0  0  0  0  0  0  0
    1.7942   22.6618  -15.5456 H   0  0  0  0  0  0  0  0  0  0  0  0
 23 24  1  0  0  0
 24 13  1  0  0  0
 13 14  2  0  0  0
 14 15  1  0  0  0
 15 16  1  0  0  0
 15 17  2  0  0  0
 17 18  1  0  0  0
 18 19  1  0  0  0
 19 20  2  0  0  0
 20 21  1  0  0  0
 21 22  1  0  0  0
 20  1  1  0  0  0
  1  2  1  0  0  0
  2 25  1  0  0  0
 25 26  1  0  0  0
 26 27  1  0  0  0
 27 28  1  0  0  0
 27 29  2  0  0  0
  2  3  2  0  0  0
  3 31  1  0  0  0
 31 32  1  0  0  0
 32 33  1  0  0  0
 33 34  1  0  0  0
 34 35  1  0  0  0
 35 36  1  0  0  0
 36 37  1  0  0  0
  3  4  1  0  0  0
  4  5  1  0  0  0
  5  6  2  0  0  0
  6  7  1  0  0  0
  7  8  2  0  0  0
  8  9  1  0  0  0
  8 10  1  0  0  0
 22 13  1  0  0  0
 10  1  2  0  0  0
 22 18  2  0  0  0
 37 32  1  0  0  0
 10  4  1  0  0  0
 26 30  1  0  0  0
 35 38  1  0  0  0
  9 11  1  0  0  0
  9 12  1  0  0  0
M  END
> <minimizedAffinity>
-7.33742

> <CNNscore>
0.1919017136

> <CNNaffinity>
6.5045061111

> <CNN_VS>
1.2482259274

> <CNNaffinity_variance>
0.1682395041

$$$$
[H]c1nc(N([H])[H])c(-c2nn(-c3c([H])c(OC([H])([H])[H])c([H])c(OC([H])([H])[H])c3[H])c(=O)c([H])c2[H])nc1-c1c([H])nn(C2([H])C([H])([H])C([H])([H])N(C([H])([H])[H])C([H])([H])C2([H])[H])c1[H]


 38 42  0  0  0  0  0  0  0  0999 V2000
    0.8015   21.0952  -21.8641 C   0  0  0  0  0  0  0  0  0  0  0  0
    0.0412   21.3899  -22.7582 N   0  0  0  0  0  0  0  0  0  0  0  0
   -0.4286   21.6874  -23.8943 C   0  0  0  0  0  0  0  0  0  0  0  0
    0.6842   21.7068  -24.8324 C   0  0  0  0  0  0  0  0  0  0  0  0
    1.7913   21.4080  -24.1668 N   0  0  0  0  0  0  0  0  0  0  0  0
    2.1162   21.1267  -22.9965 C   0  0  0  0  0  0  0  0  0  0  0  0
    3.3389   20.9419  -22.4300 N   0  0  0  0  0  0  0  0  0  0  0  0
    3.7151   21.6017  -21.6626 H   0  0  0  0  0  0  0  0  0  0  0  0
    4.0396   20.1846  -22.6749 H   0  0  0  0  0  0  0  0  0  0  0  0
    2.8068   21.3958  -18.8687 N   0  0  0  0  0  0  0  0  0  0  0  0
    2.1867   21.6819  -19.9544 N   0  0  0  0  0  0  0  0  0  0  0  0
    1.6794   20.7548  -20.8318 C   0  0  0  0  0  0  0  0  0  0  0  0
    1.8753   19.4116  -20.4691 C   0  0  0  0  0  0  0  0  0  0  0  0
    2.5250   19.0803  -19.3297 C   0  0  0  0  0  0  0  0  0  0  0  0
    2.9955   20.0878  -18.5228 C   0  0  0  0  0  0  0  0  0  0  0  0
    3.5980   19.7740  -17.4712 O   0  0  0  0  0  0  0  0  0  0  0  0
    3.2355   23.5420  -15.8698 C   0  0  0  0  0  0  0  0  0  0  0  0
    4.3712   24.2529  -16.1535 C   0  0  0  0  0  0  0  0  0  0  0  0
    5.0218   24.0209  -17.3705 C   0  0  0  0  0  0  0  0  0  0  0  0
    4.5132   23.0925  -18.2520 C   0  0  0  0  0  0  0  0  0  0  0  0
    3.3760   22.3702  -17.9851 C   0  0  0  0  0  0  0  0  0  0  0  0
    2.7383   22.6101  -16.7724 C   0  0  0  0  0  0  0  0  0  0  0  0
    1.8060   22.6728  -14.0924 C   0  0  0  0  0  0  0  0  0  0  0  0
    2.5329   23.7121  -14.6762 O   0  0  0  0  0  0  0  0  0  0  0  0
    6.1535   24.7715  -17.5687 O   0  0  0  0  0  0  0  0  0  0  0  0
    7.1607   24.3543  -18.4624 C   0  0  0  0  0  0  0  0  0  0  0  0
   -1.7627   21.9422  -24.3015 C   0  0  0  0  0  0  0  0  0  0  0  0
   -2.9452   21.4922  -23.7860 C   0  0  0  0  0  0  0  0  0  0  0  0
   -3.9395   21.9721  -24.5012 N   0  0  0  0  0  0  0  0  0  0  0  0
   -3.4690   22.7496  -25.4942 N   0  0  0  0  0  0  0  0  0  0  0  0
   -2.1411   22.7382  -25.3835 C   0  0  0  0  0  0  0  0  0  0  0  0
   -4.2727   23.4553  -26.4773 C   0  0  0  0  0  0  0  0  0  0  0  0
   -4.3000   24.9237  -26.1909 C   0  0  0  0  0  0  0  0  0  0  0  0
   -4.8921   25.7493  -27.2836 C   0  0  0  0  0  0  0  0  0  0  0  0
   -4.7174   25.2713  -28.5853 N   0  0  0  0  0  0  0  0  0  0  0  0
   -5.5704   25.7183  -29.6137 C   0  0  0  0  0  0  0  0  0  0  0  0
   -3.8258   24.2214  -28.8436 C   0  0  0  0  0  0  0  0  0  0  0  0
   -3.7313   23.1430  -27.8318 C   0  0  0  0  0  0  0  0  0  0  0  0
 23 24  1  0  0  0
 24 17  1  0  0  0
 17 18  2  0  0  0
 18 19  1  0  0  0
 19 25  1  0  0  0
 25 26  1  0  0  0
 19 20  2  0  0  0
 20 21  1  0  0  0
 21 22  2  0  0  0
 21 10  1  0  0  0
 10 11  1  0  0  0
 11 12  2  0  0  0
 12 13  1  0  0  0
 13 14  2  0  0  0
 14 15  1  0  0  0
 15 16  2  0  0  0
 12  1  1  0  0  0
  1  2  2  0  0  0
  2  3  1  0  0  0
  3  4  2  0  0  0
  4  5  1  0  0  0
  5  6  2  0  0  0
  6  7  1  0  0  0
  3 27  1  0  0  0
 27 28  1  0  0  0
 28 29  2  0  0  0
 29 30  1  0  0  0
 30 31  1  0  0  0
 30 32  1  0  0  0
 32 33  1  0  0  0
 33 34  1  0  0  0
 34 35  1  0  0  0
 35 36  1  0  0  0
 35 37  1  0  0  0
 37 38  1  0  0  0
 22 17  1  0  0  0
 15 10  1  0  0  0
  6  1  1  0  0  0
 31 27  2  0  0  0
 38 32  1  0  0  0
  7  8  1  0  0  0
  7  9  1  0  0  0
M  END
> <minimizedAffinity>
-8.44962

> <CNNscore>
0.1568545252

> <CNNaffinity>
6.3088994026

> <CNN_VS>
0.9895794392

> <CNNaffinity_variance>
0.1082070470

$$$$
[H]c1nc(N([H])[H])c(-c2nn(-c3c([H])c(OC([H])([H])[H])c([H])c(OC([H])([H])[H])c3[H])c(=O)c([H])c2[H])nc1-c1c([H])nn(C2([H])C([H])([H])C([H])([H])N(C([H])([H])[H])C([H])([H])C2([H])[H])c1[H]


 38 42  0  0  0  0  0  0  0  0999 V2000
    0.7997   21.0673  -21.8397 C   0  0  0  0  0  0  0  0  0  0  0  0
    0.0448   21.3687  -22.7361 N   0  0  0  0  0  0  0  0  0  0  0  0
   -0.4177   21.6784  -23.8719 C   0  0  0  0  0  0  0  0  0  0  0  0
    0.7028   21.7193  -24.8001 C   0  0  0  0  0  0  0  0  0  0  0  0
    1.8065   21.4195  -24.1294 N   0  0  0  0  0  0  0  0  0  0  0  0
    2.1237   21.1244  -22.9603 C   0  0  0  0  0  0  0  0  0  0  0  0
    3.3429   20.9409  -22.3860 N   0  0  0  0  0  0  0  0  0  0  0  0
    3.7075   21.5928  -21.6064 H   0  0  0  0  0  0  0  0  0  0  0  0
    4.0513   20.1923  -22.6354 H   0  0  0  0  0  0  0  0  0  0  0  0
    2.7527   21.3301  -18.8065 N   0  0  0  0  0  0  0  0  0  0  0  0
    2.1409   21.6324  -19.8925 N   0  0  0  0  0  0  0  0  0  0  0  0
    1.6714   20.7192  -20.8048 C   0  0  0  0  0  0  0  0  0  0  0  0
    1.8981   19.3713  -20.4794 C   0  0  0  0  0  0  0  0  0  0  0  0
    2.5399   19.0229  -19.3406 C   0  0  0  0  0  0  0  0  0  0  0  0
    2.9715   20.0177  -18.4969 C   0  0  0  0  0  0  0  0  0  0  0  0
    3.5670   19.6883  -17.4460 O   0  0  0  0  0  0  0  0  0  0  0  0
    4.9423   23.9997  -17.4416 C   0  0  0  0  0  0  0  0  0  0  0  0
    4.4322   24.2125  -16.1885 C   0  0  0  0  0  0  0  0  0  0  0  0
    3.3304   23.4556  -15.7749 C   0  0  0  0  0  0  0  0  0  0  0  0
    2.7851   22.5195  -16.6258 C   0  0  0  0  0  0  0  0  0  0  0  0
    3.2827   22.2921  -17.8856 C   0  0  0  0  0  0  0  0  0  0  0  0
    4.3781   23.0505  -18.2849 C   0  0  0  0  0  0  0  0  0  0  0  0
    7.1337   24.0834  -18.5134 C   0  0  0  0  0  0  0  0  0  0  0  0
    6.0353   24.7171  -17.9291 O   0  0  0  0  0  0  0  0  0  0  0  0
    2.8819   23.7388  -14.5091 O   0  0  0  0  0  0  0  0  0  0  0  0
    1.7775   23.0600  -13.9554 C   0  0  0  0  0  0  0  0  0  0  0  0
   -1.7502   21.9289  -24.2869 C   0  0  0  0  0  0  0  0  0  0  0  0
   -2.9346   21.4825  -23.7726 C   0  0  0  0  0  0  0  0  0  0  0  0
   -3.9261   21.9556  -24.4961 N   0  0  0  0  0  0  0  0  0  0  0  0
   -3.4520   22.7249  -25.4937 N   0  0  0  0  0  0  0  0  0  0  0  0
   -2.1245   22.7153  -25.3774 C   0  0  0  0  0  0  0  0  0  0  0  0
   -4.2519   23.4217  -26.4863 C   0  0  0  0  0  0  0  0  0  0  0  0
   -4.3007   24.8893  -26.1990 C   0  0  0  0  0  0  0  0  0  0  0  0
   -4.8892   25.7087  -27.2984 C   0  0  0  0  0  0  0  0  0  0  0  0
   -4.6925   25.2341  -28.5982 N   0  0  0  0  0  0  0  0  0  0  0  0
   -5.5380   25.6716  -29.6368 C   0  0  0  0  0  0  0  0  0  0  0  0
   -3.7849   24.1955  -28.8462 C   0  0  0  0  0  0  0  0  0  0  0  0
   -3.6899   23.1173  -27.8341 C   0  0  0  0  0  0  0  0  0  0  0  0
 23 24  1  0  0  0
 24 17  1  0  0  0
 17 18  2  0  0  0
 18 19  1  0  0  0
 19 25  1  0  0  0
 25 26  1  0  0  0
 19 20  2  0  0  0
 20 21  1  0  0  0
 21 22  2  0  0  0
 21 10  1  0  0  0
 10 11  1  0  0  0
 11 12  2  0  0  0
 12 13  1  0  0  0
 13 14  2  0  0  0
 14 15  1  0  0  0
 15 16  2  0  0  0
 12  1  1  0  0  0
  1  2  2  0  0  0
  2  3  1  0  0  0
  3  4  2  0  0  0
  4  5  1  0  0  0
  5  6  2  0  0  0
  6  7  1  0  0  0
  3 27  1  0  0  0
 27 28  1  0  0  0
 28 29  2  0  0  0
 29 30  1  0  0  0
 30 31  1  0  0  0
 30 32  1  0  0  0
 32 33  1  0  0  0
 33 34  1  0  0  0
 34 35  1  0  0  0
 35 36  1  0  0  0
 35 37  1  0  0  0
 37 38  1  0  0  0
 22 17  1  0  0  0
 15 10  1  0  0  0
  6  1  1  0  0  0
 31 27  2  0  0  0
 38 32  1  0  0  0
  7  8  1  0  0  0
  7  9  1  0  0  0
M  END
> <minimizedAffinity>
-8.40132

> <CNNscore>
0.1421148032

> <CNNaffinity>
6.2757964134

> <CNN_VS>
0.8918835521

> <CNNaffinity_variance>
0.1136558801

$$$$
[H]c1nc(N([H])[H])c(-c2nn(-c3c([H])c(OC([H])([H])[H])c([H])c(OC([H])([H])[H])c3[H])c(=O)c([H])c2[H])nc1-c1c([H])nn(C2([H])C([H])([H])C([H])([H])N(C([H])([H])[H])C([H])([H])C2([H])[H])c1[H]


 38 42  0  0  0  0  0  0  0  0999 V2000
    0.8205   21.0774  -21.8954 C   0  0  0  0  0  0  0  0  0  0  0  0
    0.0348   21.3711  -22.7674 N   0  0  0  0  0  0  0  0  0  0  0  0
   -0.4662   21.6772  -23.8878 C   0  0  0  0  0  0  0  0  0  0  0  0
    0.6245   21.7333  -24.8500 C   0  0  0  0  0  0  0  0  0  0  0  0
    1.7519   21.4458  -24.2142 N   0  0  0  0  0  0  0  0  0  0  0  0
    2.1085   21.1525  -23.0561 C   0  0  0  0  0  0  0  0  0  0  0  0
    3.3470   20.9829  -22.5200 N   0  0  0  0  0  0  0  0  0  0  0  0
    3.7276   21.6378  -21.7506 H   0  0  0  0  0  0  0  0  0  0  0  0
    4.0564   20.2434  -22.7926 H   0  0  0  0  0  0  0  0  0  0  0  0
    2.8682   21.3613  -18.9272 N   0  0  0  0  0  0  0  0  0  0  0  0
    2.2193   21.6567  -19.9934 N   0  0  0  0  0  0  0  0  0  0  0  0
    1.7278   20.7381  -20.8885 C   0  0  0  0  0  0  0  0  0  0  0  0
    1.9755   19.3926  -20.5683 C   0  0  0  0  0  0  0  0  0  0  0  0
    2.6564   19.0515  -19.4502 C   0  0  0  0  0  0  0  0  0  0  0  0
    3.1071   20.0513  -18.6226 C   0  0  0  0  0  0  0  0  0  0  0  0
    3.7388   19.7285  -17.5909 O   0  0  0  0  0  0  0  0  0  0  0  0
    3.2405   23.4826  -15.9031 C   0  0  0  0  0  0  0  0  0  0  0  0
    4.3797   24.1978  -16.1610 C   0  0  0  0  0  0  0  0  0  0  0  0
    5.0517   23.9774  -17.3683 C   0  0  0  0  0  0  0  0  0  0  0  0
    4.5604   23.0557  -18.2664 C   0  0  0  0  0  0  0  0  0  0  0  0
    3.4200   22.3291  -18.0255 C   0  0  0  0  0  0  0  0  0  0  0  0
    2.7609   22.5575  -16.8222 C   0  0  0  0  0  0  0  0  0  0  0  0
    2.5046   22.6622  -13.7251 C   0  0  0  0  0  0  0  0  0  0  0  0
    2.5170   23.6412  -14.7205 O   0  0  0  0  0  0  0  0  0  0  0  0
    6.1853   24.7317  -17.5404 O   0  0  0  0  0  0  0  0  0  0  0  0
    7.1729   24.3647  -18.4768 C   0  0  0  0  0  0  0  0  0  0  0  0
   -1.8138   21.9123  -24.2611 C   0  0  0  0  0  0  0  0  0  0  0  0
   -2.4536   21.6908  -25.4478 C   0  0  0  0  0  0  0  0  0  0  0  0
   -3.7053   22.0815  -25.3441 N   0  0  0  0  0  0  0  0  0  0  0  0
   -3.9452   22.5605  -24.1092 N   0  0  0  0  0  0  0  0  0  0  0  0
   -2.7975   22.4637  -23.4390 C   0  0  0  0  0  0  0  0  0  0  0  0
   -5.2160   23.0722  -23.6258 C   0  0  0  0  0  0  0  0  0  0  0  0
   -5.0332   24.3815  -22.9250 C   0  0  0  0  0  0  0  0  0  0  0  0
   -6.3077   25.0939  -22.6173 C   0  0  0  0  0  0  0  0  0  0  0  0
   -7.3599   24.8973  -23.5160 N   0  0  0  0  0  0  0  0  0  0  0  0
   -8.6833   25.1586  -23.1096 C   0  0  0  0  0  0  0  0  0  0  0  0
   -7.1335   24.2740  -24.7505 C   0  0  0  0  0  0  0  0  0  0  0  0
   -6.1514   23.1648  -24.7841 C   0  0  0  0  0  0  0  0  0  0  0  0
 23 24  1  0  0  0
 24 17  1  0  0  0
 17 18  2  0  0  0
 18 19  1  0  0  0
 19 25  1  0  0  0
 25 26  1  0  0  0
 19 20  2  0  0  0
 20 21  1  0  0  0
 21 22  2  0  0  0
 21 10  1  0  0  0
 10 11  1  0  0  0
 11 12  2  0  0  0
 12 13  1  0  0  0
 13 14  2  0  0  0
 14 15  1  0  0  0
 15 16  2  0  0  0
 12  1  1  0  0  0
  1  2  2  0  0  0
  2  3  1  0  0  0
  3  4  2  0  0  0
  4  5  1  0  0  0
  5  6  2  0  0  0
  6  7  1  0  0  0
  3 27  1  0  0  0
 27 28  1  0  0  0
 28 29  2  0  0  0
 29 30  1  0  0  0
 30 31  1  0  0  0
 30 32  1  0  0  0
 32 33  1  0  0  0
 33 34  1  0  0  0
 34 35  1  0  0  0
 35 36  1  0  0  0
 35 37  1  0  0  0
 37 38  1  0  0  0
 22 17  1  0  0  0
 15 10  1  0  0  0
  6  1  1  0  0  0
 31 27  2  0  0  0
 38 32  1  0  0  0
  7  8  1  0  0  0
  7  9  1  0  0  0
M  END
> <minimizedAffinity>
-7.93699

> <CNNscore>
0.1324563175

> <CNNaffinity>
6.1597390175

> <CNN_VS>
0.8158963323

> <CNNaffinity_variance>
0.0902428031

$$$$
[H]c1nc(N([H])[H])c(-c2nn(-c3c([H])c(OC([H])([H])[H])c([H])c(OC([H])([H])[H])c3[H])c(=O)c([H])c2[H])nc1-c1c([H])nn(C2([H])C([H])([H])C([H])([H])N(C([H])([H])[H])C([H])([H])C2([H])[H])c1[H]


 38 42  0  0  0  0  0  0  0  0999 V2000
   -6.9425   23.9239  -23.7874 C   0  0  0  0  0  0  0  0  0  0  0  0
   -7.7016   24.0296  -22.8511 N   0  0  0  0  0  0  0  0  0  0  0  0
   -8.4176   24.5108  -21.9260 C   0  0  0  0  0  0  0  0  0  0  0  0
   -8.2531   25.9567  -21.9574 C   0  0  0  0  0  0  0  0  0  0  0  0
   -7.4142   26.2560  -22.9395 N   0  0  0  0  0  0  0  0  0  0  0  0
   -6.7560   25.6492  -23.8073 C   0  0  0  0  0  0  0  0  0  0  0  0
   -5.8342   26.0958  -24.7022 N   0  0  0  0  0  0  0  0  0  0  0  0
   -4.8026   25.7798  -24.6606 H   0  0  0  0  0  0  0  0  0  0  0  0
   -6.0022   26.7857  -25.4897 H   0  0  0  0  0  0  0  0  0  0  0  0
   -3.9843   23.0720  -25.6866 N   0  0  0  0  0  0  0  0  0  0  0  0
   -4.7570   23.4131  -24.7213 N   0  0  0  0  0  0  0  0  0  0  0  0
   -6.0661   23.8019  -24.8687 C   0  0  0  0  0  0  0  0  0  0  0  0
   -6.5483   23.8067  -26.1883 C   0  0  0  0  0  0  0  0  0  0  0  0
   -5.7564   23.4511  -27.2259 C   0  0  0  0  0  0  0  0  0  0  0  0
   -4.4589   23.0805  -26.9675 C   0  0  0  0  0  0  0  0  0  0  0  0
   -3.7309   22.7551  -27.9327 O   0  0  0  0  0  0  0  0  0  0  0  0
   -0.3893   22.6311  -26.5022 C   0  0  0  0  0  0  0  0  0  0  0  0
    0.1228   22.0670  -25.3642 C   0  0  0  0  0  0  0  0  0  0  0  0
   -0.7394   21.8227  -24.2896 C   0  0  0  0  0  0  0  0  0  0  0  0
   -2.0734   22.1495  -24.3948 C   0  0  0  0  0  0  0  0  0  0  0  0
   -2.6051   22.7158  -25.5275 C   0  0  0  0  0  0  0  0  0  0  0  0
   -1.7381   22.9533  -26.5888 C   0  0  0  0  0  0  0  0  0  0  0  0
   -0.1428   23.3202  -28.8309 C   0  0  0  0  0  0  0  0  0  0  0  0
    0.4061   22.9104  -27.6143 O   0  0  0  0  0  0  0  0  0  0  0  0
   -0.1407   21.2620  -23.1892 O   0  0  0  0  0  0  0  0  0  0  0  0
   -0.5899   21.5520  -21.8848 C   0  0  0  0  0  0  0  0  0  0  0  0
   -9.2777   23.8697  -20.9986 C   0  0  0  0  0  0  0  0  0  0  0  0
  -10.5728   24.1428  -20.6598 C   0  0  0  0  0  0  0  0  0  0  0  0
  -10.9652   23.2960  -19.7329 N   0  0  0  0  0  0  0  0  0  0  0  0
   -9.9717   22.4397  -19.4304 N   0  0  0  0  0  0  0  0  0  0  0  0
   -8.9355   22.7807  -20.1958 C   0  0  0  0  0  0  0  0  0  0  0  0
  -10.0423   21.3612  -18.4596 C   0  0  0  0  0  0  0  0  0  0  0  0
   -8.7437   20.6216  -18.3868 C   0  0  0  0  0  0  0  0  0  0  0  0
   -8.6479   19.6642  -17.2464 C   0  0  0  0  0  0  0  0  0  0  0  0
   -9.3472   20.0102  -16.0867 N   0  0  0  0  0  0  0  0  0  0  0  0
   -9.6702   19.0151  -15.1431 C   0  0  0  0  0  0  0  0  0  0  0  0
   -9.8865   21.2951  -15.9382 C   0  0  0  0  0  0  0  0  0  0  0  0
  -10.4483   21.9423  -17.1471 C   0  0  0  0  0  0  0  0  0  0  0  0
 23 24  1  0  0  0
 24 17  1  0  0  0
 17 18  2  0  0  0
 18 19  1  0  0  0
 19 25  1  0  0  0
 25 26  1  0  0  0
 19 20  2  0  0  0
 20 21  1  0  0  0
 21 22  2  0  0  0
 21 10  1  0  0  0
 10 11  1  0  0  0
 11 12  2  0  0  0
 12 13  1  0  0  0
 13 14  2  0  0  0
 14 15  1  0  0  0
 15 16  2  0  0  0
 12  1  1  0  0  0
  1  2  2  0  0  0
  2  3  1  0  0  0
  3  4  2  0  0  0
  4  5  1  0  0  0
  5  6  2  0  0  0
  6  7  1  0  0  0
  3 27  1  0  0  0
 27 28  1  0  0  0
 28 29  2  0  0  0
 29 30  1  0  0  0
 30 31  1  0  0  0
 30 32  1  0  0  0
 32 33  1  0  0  0
 33 34  1  0  0  0
 34 35  1  0  0  0
 35 36  1  0  0  0
 35 37  1  0  0  0
 37 38  1  0  0  0
 22 17  1  0  0  0
 15 10  1  0  0  0
  6  1  1  0  0  0
 31 27  2  0  0  0
 38 32  1  0  0  0
  7  8  1  0  0  0
  7  9  1  0  0  0
M  END
> <minimizedAffinity>
-8.81400

> <CNNscore>
0.1235556230

> <CNNaffinity>
6.5149474144

> <CNN_VS>
0.8049584031

> <CNNaffinity_variance>
0.0576780029

$$$$
[H]c1nc(N([H])[H])c(-c2nn(-c3c([H])c(OC([H])([H])[H])c([H])c(OC([H])([H])[H])c3[H])c(=O)c([H])c2[H])nc1-c1c([H])nn(C2([H])C([H])([H])C([H])([H])N(C([H])([H])[H])C([H])([H])C2([H])[H])c1[H]


 38 42  0  0  0  0  0  0  0  0999 V2000
    0.8275   20.8992  -21.1620 C   0  0  0  0  0  0  0  0  0  0  0  0
    0.6874   21.2393  -22.3147 N   0  0  0  0  0  0  0  0  0  0  0  0
    0.9070   21.4854  -23.5358 C   0  0  0  0  0  0  0  0  0  0  0  0
    2.2927   21.1323  -23.8072 C   0  0  0  0  0  0  0  0  0  0  0  0
    2.8319   20.6805  -22.6833 N   0  0  0  0  0  0  0  0  0  0  0  0
    2.4784   20.4870  -21.5035 C   0  0  0  0  0  0  0  0  0  0  0  0
    3.1914   20.1065  -20.4095 N   0  0  0  0  0  0  0  0  0  0  0  0
    3.3161   20.7582  -19.5578 H   0  0  0  0  0  0  0  0  0  0  0  0
    3.7004   19.1857  -20.2773 H   0  0  0  0  0  0  0  0  0  0  0  0
    1.3723   21.1236  -17.5931 N   0  0  0  0  0  0  0  0  0  0  0  0
    1.4216   21.3669  -18.8515 N   0  0  0  0  0  0  0  0  0  0  0  0
    0.9894   20.5063  -19.8309 C   0  0  0  0  0  0  0  0  0  0  0  0
    0.4608   19.2880  -19.3722 C   0  0  0  0  0  0  0  0  0  0  0  0
    0.3957   19.0047  -18.0510 C   0  0  0  0  0  0  0  0  0  0  0  0
    0.8589   19.9365  -17.1538 C   0  0  0  0  0  0  0  0  0  0  0  0
    0.7979   19.6667  -15.9328 O   0  0  0  0  0  0  0  0  0  0  0  0
    3.4052   23.7897  -15.9983 C   0  0  0  0  0  0  0  0  0  0  0  0
    2.9518   23.7980  -14.7059 C   0  0  0  0  0  0  0  0  0  0  0  0
    1.9429   22.8990  -14.3428 C   0  0  0  0  0  0  0  0  0  0  0  0
    1.4301   22.0307  -15.2811 C   0  0  0  0  0  0  0  0  0  0  0  0
    1.8718   22.0076  -16.5814 C   0  0  0  0  0  0  0  0  0  0  0  0
    2.8750   22.9057  -16.9299 C   0  0  0  0  0  0  0  0  0  0  0  0
    5.5829   24.1915  -17.0249 C   0  0  0  0  0  0  0  0  0  0  0  0
    4.4045   24.6581  -16.4393 O   0  0  0  0  0  0  0  0  0  0  0  0
    1.5456   22.9810  -13.0317 O   0  0  0  0  0  0  0  0  0  0  0  0
    1.8632   24.1031  -12.2398 C   0  0  0  0  0  0  0  0  0  0  0  0
    0.0430   21.9793  -24.5459 C   0  0  0  0  0  0  0  0  0  0  0  0
    0.2296   22.0829  -25.8954 C   0  0  0  0  0  0  0  0  0  0  0  0
   -0.8391   22.6231  -26.4397 N   0  0  0  0  0  0  0  0  0  0  0  0
   -1.7621   22.8874  -25.4962 N   0  0  0  0  0  0  0  0  0  0  0  0
   -1.2346   22.4999  -24.3354 C   0  0  0  0  0  0  0  0  0  0  0  0
   -3.0706   23.4755  -25.7253 C   0  0  0  0  0  0  0  0  0  0  0  0
   -3.5975   23.0983  -27.0740 C   0  0  0  0  0  0  0  0  0  0  0  0
   -5.0309   23.4511  -27.2914 C   0  0  0  0  0  0  0  0  0  0  0  0
   -5.8537   23.4242  -26.1619 N   0  0  0  0  0  0  0  0  0  0  0  0
   -7.0725   24.1308  -26.1689 C   0  0  0  0  0  0  0  0  0  0  0  0
   -5.3992   22.8554  -24.9645 C   0  0  0  0  0  0  0  0  0  0  0  0
   -3.9724   23.0510  -24.6155 C   0  0  0  0  0  0  0  0  0  0  0  0
 23 24  1  0  0  0
 24 17  1  0  0  0
 17 18  2  0  0  0
 18 19  1  0  0  0
 19 25  1  0  0  0
 25 26  1  0  0  0
 19 20  2  0  0  0
 20 21  1  0  0  0
 21 22  2  0  0  0
 21 10  1  0  0  0
 10 11  1  0  0  0
 11 12  2  0  0  0
 12 13  1  0  0  0
 13 14  2  0  0  0
 14 15  1  0  0  0
 15 16  2  0  0  0
 12  1  1  0  0  0
  1  2  2  0  0  0
  2  3  1  0  0  0
  3  4  2  0  0  0
  4  5  1  0  0  0
  5  6  2  0  0  0
  6  7  1  0  0  0
  3 27  1  0  0  0
 27 28  1  0  0  0
 28 29  2  0  0  0
 29 30  1  0  0  0
 30 31  1  0  0  0
 30 32  1  0  0  0
 32 33  1  0  0  0
 33 34  1  0  0  0
 34 35  1  0  0  0
 35 36  1  0  0  0
 35 37  1  0  0  0
 37 38  1  0  0  0
 22 17  1  0  0  0
 15 10  1  0  0  0
  6  1  1  0  0  0
 31 27  2  0  0  0
 38 32  1  0  0  0
  7  8  1  0  0  0
  7  9  1  0  0  0
M  END
> <minimizedAffinity>
-7.48142

> <CNNscore>
0.0960733667

> <CNNaffinity>
6.4002656937

> <CNN_VS>
0.6148950458

> <CNNaffinity_variance>
0.0528302416

$$$$
[H]c1nc(N([H])[H])c(-c2nn(-c3c([H])c(OC([H])([H])[H])c([H])c(OC([H])([H])[H])c3[H])c(=O)c([H])c2[H])nc1-c1c([H])nn(C2([H])C([H])([H])C([H])([H])N(C([H])([H])[H])C([H])([H])C2([H])[H])c1[H]


 38 42  0  0  0  0  0  0  0  0999 V2000
   -6.0330   23.1138  -20.9390 C   0  0  0  0  0  0  0  0  0  0  0  0
   -6.2179   22.9623  -19.7529 N   0  0  0  0  0  0  0  0  0  0  0  0
   -6.3783   23.1849  -18.5181 C   0  0  0  0  0  0  0  0  0  0  0  0
   -6.2797   24.6236  -18.3203 C   0  0  0  0  0  0  0  0  0  0  0  0
   -6.0569   25.1886  -19.4988 N   0  0  0  0  0  0  0  0  0  0  0  0
   -5.9150   24.8262  -20.6833 C   0  0  0  0  0  0  0  0  0  0  0  0
   -5.5794   25.5303  -21.7976 N   0  0  0  0  0  0  0  0  0  0  0  0
   -4.6620   25.3407  -22.3344 H   0  0  0  0  0  0  0  0  0  0  0  0
   -6.1350   26.3200  -22.2359 H   0  0  0  0  0  0  0  0  0  0  0  0
   -4.4236   22.9681  -24.1752 N   0  0  0  0  0  0  0  0  0  0  0  0
   -4.6091   23.0400  -22.9080 N   0  0  0  0  0  0  0  0  0  0  0  0
   -5.8198   23.2888  -22.3088 C   0  0  0  0  0  0  0  0  0  0  0  0
   -6.9018   23.4666  -23.1873 C   0  0  0  0  0  0  0  0  0  0  0  0
   -6.7358   23.3956  -24.5280 C   0  0  0  0  0  0  0  0  0  0  0  0
   -5.4795   23.1437  -25.0238 C   0  0  0  0  0  0  0  0  0  0  0  0
   -5.3326   23.0818  -26.2657 O   0  0  0  0  0  0  0  0  0  0  0  0
   -0.8454   22.0468  -24.5377 C   0  0  0  0  0  0  0  0  0  0  0  0
   -0.5898   22.2988  -25.8594 C   0  0  0  0  0  0  0  0  0  0  0  0
   -1.6265   22.7872  -26.6623 C   0  0  0  0  0  0  0  0  0  0  0  0
   -2.8717   23.0042  -26.1147 C   0  0  0  0  0  0  0  0  0  0  0  0
   -3.1470   22.7574  -24.7919 C   0  0  0  0  0  0  0  0  0  0  0  0
   -2.1083   22.2725  -24.0042 C   0  0  0  0  0  0  0  0  0  0  0  0
   -0.1438   21.2507  -22.3395 C   0  0  0  0  0  0  0  0  0  0  0  0
    0.1335   21.5542  -23.6738 O   0  0  0  0  0  0  0  0  0  0  0  0
   -1.2835   23.0052  -27.9732 O   0  0  0  0  0  0  0  0  0  0  0  0
    0.0656   23.0367  -28.3808 C   0  0  0  0  0  0  0  0  0  0  0  0
   -6.6405   22.2928  -17.4476 C   0  0  0  0  0  0  0  0  0  0  0  0
   -5.9928   22.1276  -16.2561 C   0  0  0  0  0  0  0  0  0  0  0  0
   -6.5751   21.1631  -15.5771 N   0  0  0  0  0  0  0  0  0  0  0  0
   -7.6152   20.6644  -16.2709 N   0  0  0  0  0  0  0  0  0  0  0  0
   -7.6645   21.3452  -17.4155 C   0  0  0  0  0  0  0  0  0  0  0  0
   -8.4979   19.5968  -15.8334 C   0  0  0  0  0  0  0  0  0  0  0  0
   -9.2606   20.0009  -14.6111 C   0  0  0  0  0  0  0  0  0  0  0  0
  -10.3639   19.0668  -14.2417 C   0  0  0  0  0  0  0  0  0  0  0  0
  -10.9934   18.4030  -15.2984 N   0  0  0  0  0  0  0  0  0  0  0  0
  -11.7211   17.2230  -15.0472 C   0  0  0  0  0  0  0  0  0  0  0  0
  -10.7600   18.7940  -16.6237 C   0  0  0  0  0  0  0  0  0  0  0  0
   -9.3883   19.2325  -16.9733 C   0  0  0  0  0  0  0  0  0  0  0  0
 23 24  1  0  0  0
 24 17  1  0  0  0
 17 18  2  0  0  0
 18 19  1  0  0  0
 19 25  1  0  0  0
 25 26  1  0  0  0
 19 20  2  0  0  0
 20 21  1  0  0  0
 21 22  2  0  0  0
 21 10  1  0  0  0
 10 11  1  0  0  0
 11 12  2  0  0  0
 12 13  1  0  0  0
 13 14  2  0  0  0
 14 15  1  0  0  0
 15 16  2  0  0  0
 12  1  1  0  0  0
  1  2  2  0  0  0
  2  3  1  0  0  0
  3  4  2  0  0  0
  4  5  1  0  0  0
  5  6  2  0  0  0
  6  7  1  0  0  0
  3 27  1  0  0  0
 27 28  1  0  0  0
 28 29  2  0  0  0
 29 30  1  0  0  0
 30 31  1  0  0  0
 30 32  1  0  0  0
 32 33  1  0  0  0
 33 34  1  0  0  0
 34 35  1  0  0  0
 35 36  1  0  0  0
 35 37  1  0  0  0
 37 38  1  0  0  0
 22 17  1  0  0  0
 15 10  1  0  0  0
  6  1  1  0  0  0
 31 27  2  0  0  0
 38 32  1  0  0  0
  7  8  1  0  0  0
  7  9  1  0  0  0
M  END
> <minimizedAffinity>
-7.45822

> <CNNscore>
0.0929972678

> <CNNaffinity>
6.1798405647

> <CNN_VS>
0.5747082829

> <CNNaffinity_variance>
0.1154953018

$$$$
[H]c1nc(N([H])[H])c(-c2nn(-c3c([H])c(OC([H])([H])[H])c([H])c(OC([H])([H])[H])c3[H])c(=O)c([H])c2[H])nc1-c1c([H])nn(C2([H])C([H])([H])C([H])([H])N(C([H])([H])[H])C([H])([H])C2([H])[H])c1[H]


 38 42  0  0  0  0  0  0  0  0999 V2000
   -5.3958   22.8941  -19.1247 C   0  0  0  0  0  0  0  0  0  0  0  0
   -5.1055   23.0846  -17.9656 N   0  0  0  0  0  0  0  0  0  0  0  0
   -4.9717   23.6187  -16.8268 C   0  0  0  0  0  0  0  0  0  0  0  0
   -5.5668   24.9452  -16.8971 C   0  0  0  0  0  0  0  0  0  0  0  0
   -6.0355   25.1235  -18.1244 N   0  0  0  0  0  0  0  0  0  0  0  0
   -6.0975   24.4800  -19.1905 C   0  0  0  0  0  0  0  0  0  0  0  0
   -6.5268   24.8442  -20.4287 N   0  0  0  0  0  0  0  0  0  0  0  0
   -5.8562   24.8828  -21.2740 H   0  0  0  0  0  0  0  0  0  0  0  0
   -7.5104   25.1387  -20.6939 H   0  0  0  0  0  0  0  0  0  0  0  0
   -5.0145   22.3654  -22.6826 N   0  0  0  0  0  0  0  0  0  0  0  0
   -4.8156   22.7713  -21.4823 N   0  0  0  0  0  0  0  0  0  0  0  0
   -5.7313   22.6741  -20.4631 C   0  0  0  0  0  0  0  0  0  0  0  0
   -6.9558   22.0775  -20.8080 C   0  0  0  0  0  0  0  0  0  0  0  0
   -7.1930   21.6396  -22.0658 C   0  0  0  0  0  0  0  0  0  0  0  0
   -6.2078   21.7879  -23.0118 C   0  0  0  0  0  0  0  0  0  0  0  0
   -6.4351   21.3827  -24.1745 O   0  0  0  0  0  0  0  0  0  0  0  0
   -1.8484   22.0568  -24.5970 C   0  0  0  0  0  0  0  0  0  0  0  0
   -2.1170   22.7334  -25.7571 C   0  0  0  0  0  0  0  0  0  0  0  0
   -3.3810   23.3112  -25.9198 C   0  0  0  0  0  0  0  0  0  0  0  0
   -4.3219   23.1911  -24.9209 C   0  0  0  0  0  0  0  0  0  0  0  0
   -4.0711   22.5167  -23.7510 C   0  0  0  0  0  0  0  0  0  0  0  0
   -2.8110   21.9471  -23.6011 C   0  0  0  0  0  0  0  0  0  0  0  0
    0.0384   21.5549  -23.1319 C   0  0  0  0  0  0  0  0  0  0  0  0
   -0.6146   21.4490  -24.3616 O   0  0  0  0  0  0  0  0  0  0  0  0
   -3.5648   23.9633  -27.1134 O   0  0  0  0  0  0  0  0  0  0  0  0
   -4.6714   23.6796  -27.9391 C   0  0  0  0  0  0  0  0  0  0  0  0
   -4.4006   23.1108  -15.6325 C   0  0  0  0  0  0  0  0  0  0  0  0
   -4.7988   23.2515  -14.3331 C   0  0  0  0  0  0  0  0  0  0  0  0
   -3.9497   22.6222  -13.5499 N   0  0  0  0  0  0  0  0  0  0  0  0
   -2.9788   22.0439  -14.2811 N   0  0  0  0  0  0  0  0  0  0  0  0
   -3.2424   22.3362  -15.5543 C   0  0  0  0  0  0  0  0  0  0  0  0
   -1.8743   21.2568  -13.7605 C   0  0  0  0  0  0  0  0  0  0  0  0
   -0.6655   21.3900  -14.6322 C   0  0  0  0  0  0  0  0  0  0  0  0
    0.5802   20.8184  -14.0423 C   0  0  0  0  0  0  0  0  0  0  0  0
    0.6859   20.8689  -12.6495 N   0  0  0  0  0  0  0  0  0  0  0  0
    1.5787   20.0048  -11.9852 C   0  0  0  0  0  0  0  0  0  0  0  0
   -0.2117   21.6369  -11.8957 C   0  0  0  0  0  0  0  0  0  0  0  0
   -1.6200   21.6847  -12.3543 C   0  0  0  0  0  0  0  0  0  0  0  0
 23 24  1  0  0  0
 24 17  1  0  0  0
 17 18  2  0  0  0
 18 19  1  0  0  0
 19 25  1  0  0  0
 25 26  1  0  0  0
 19 20  2  0  0  0
 20 21  1  0  0  0
 21 22  2  0  0  0
 21 10  1  0  0  0
 10 11  1  0  0  0
 11 12  2  0  0  0
 12 13  1  0  0  0
 13 14  2  0  0  0
 14 15  1  0  0  0
 15 16  2  0  0  0
 12  1  1  0  0  0
  1  2  2  0  0  0
  2  3  1  0  0  0
  3  4  2  0  0  0
  4  5  1  0  0  0
  5  6  2  0  0  0
  6  7  1  0  0  0
  3 27  1  0  0  0
 27 28  1  0  0  0
 28 29  2  0  0  0
 29 30  1  0  0  0
 30 31  1  0  0  0
 30 32  1  0  0  0
 32 33  1  0  0  0
 33 34  1  0  0  0
 34 35  1  0  0  0
 35 36  1  0  0  0
 35 37  1  0  0  0
 37 38  1  0  0  0
 22 17  1  0  0  0
 15 10  1  0  0  0
  6  1  1  0  0  0
 31 27  2  0  0  0
 38 32  1  0  0  0
  7  8  1  0  0  0
  7  9  1  0  0  0
M  END
> <minimizedAffinity>
-6.72123

> <CNNscore>
0.0816262960

> <CNNaffinity>
5.9231882095

> <CNN_VS>
0.4834879041

> <CNNaffinity_variance>
0.0213729460

$$$$
[H]c1nc(N([H])[H])c(-c2nn(-c3c([H])c(OC([H])([H])[H])c([H])c(OC([H])([H])[H])c3[H])c(=O)c([H])c2[H])nc1-c1c([H])nn(C2([H])C([H])([H])C([H])([H])N(C([H])([H])[H])C([H])([H])C2([H])[H])c1[H]


 38 42  0  0  0  0  0  0  0  0999 V2000
   -5.4047   22.8408  -19.1884 C   0  0  0  0  0  0  0  0  0  0  0  0
   -5.0870   22.9980  -18.0315 N   0  0  0  0  0  0  0  0  0  0  0  0
   -4.9219   23.5010  -16.8827 C   0  0  0  0  0  0  0  0  0  0  0  0
   -5.5017   24.8359  -16.9062 C   0  0  0  0  0  0  0  0  0  0  0  0
   -5.9945   25.0513  -18.1181 N   0  0  0  0  0  0  0  0  0  0  0  0
   -6.0876   24.4362  -19.1986 C   0  0  0  0  0  0  0  0  0  0  0  0
   -6.5390   24.8372  -20.4174 N   0  0  0  0  0  0  0  0  0  0  0  0
   -5.8864   24.8894  -21.2759 H   0  0  0  0  0  0  0  0  0  0  0  0
   -7.5243   25.1502  -20.6534 H   0  0  0  0  0  0  0  0  0  0  0  0
   -5.1140   22.4939  -22.7772 N   0  0  0  0  0  0  0  0  0  0  0  0
   -4.8993   22.8583  -21.5663 N   0  0  0  0  0  0  0  0  0  0  0  0
   -5.7718   22.6592  -20.5243 C   0  0  0  0  0  0  0  0  0  0  0  0
   -6.9686   22.0030  -20.8576 C   0  0  0  0  0  0  0  0  0  0  0  0
   -7.2217   21.6068  -22.1261 C   0  0  0  0  0  0  0  0  0  0  0  0
   -6.2804   21.8579  -23.0948 C   0  0  0  0  0  0  0  0  0  0  0  0
   -6.5222   21.4908  -24.2671 O   0  0  0  0  0  0  0  0  0  0  0  0
   -3.7678   24.0010  -25.8917 C   0  0  0  0  0  0  0  0  0  0  0  0
   -2.5698   23.3584  -26.0579 C   0  0  0  0  0  0  0  0  0  0  0  0
   -2.1875   22.3972  -25.1157 C   0  0  0  0  0  0  0  0  0  0  0  0
   -3.0142   22.1169  -24.0500 C   0  0  0  0  0  0  0  0  0  0  0  0
   -4.2188   22.7508  -23.8667 C   0  0  0  0  0  0  0  0  0  0  0  0
   -4.5877   23.7039  -24.8101 C   0  0  0  0  0  0  0  0  0  0  0  0
   -4.5942   26.2499  -26.3584 C   0  0  0  0  0  0  0  0  0  0  0  0
   -4.2170   24.9748  -26.7845 O   0  0  0  0  0  0  0  0  0  0  0  0
   -0.9712   21.8088  -25.3568 O   0  0  0  0  0  0  0  0  0  0  0  0
    0.0297   21.7650  -24.3652 C   0  0  0  0  0  0  0  0  0  0  0  0
   -4.3315   22.9558  -15.7145 C   0  0  0  0  0  0  0  0  0  0  0  0
   -4.6317   23.1561  -14.3968 C   0  0  0  0  0  0  0  0  0  0  0  0
   -3.8032   22.4556  -13.6530 N   0  0  0  0  0  0  0  0  0  0  0  0
   -2.9430   21.7702  -14.4291 N   0  0  0  0  0  0  0  0  0  0  0  0
   -3.2547   22.0685  -15.6899 C   0  0  0  0  0  0  0  0  0  0  0  0
   -1.8931   20.8827  -13.9594 C   0  0  0  0  0  0  0  0  0  0  0  0
   -1.9250   19.5805  -14.6957 C   0  0  0  0  0  0  0  0  0  0  0  0
   -0.7366   18.7113  -14.4533 C   0  0  0  0  0  0  0  0  0  0  0  0
    0.4709   19.3689  -14.2022 N   0  0  0  0  0  0  0  0  0  0  0  0
    1.5186   18.6827  -13.5570 C   0  0  0  0  0  0  0  0  0  0  0  0
    0.5880   20.7483  -14.4199 C   0  0  0  0  0  0  0  0  0  0  0  0
   -0.5878   21.5911  -14.0990 C   0  0  0  0  0  0  0  0  0  0  0  0
 23 24  1  0  0  0
 24 17  1  0  0  0
 17 18  2  0  0  0
 18 19  1  0  0  0
 19 25  1  0  0  0
 25 26  1  0  0  0
 19 20  2  0  0  0
 20 21  1  0  0  0
 21 22  2  0  0  0
 21 10  1  0  0  0
 10 11  1  0  0  0
 11 12  2  0  0  0
 12 13  1  0  0  0
 13 14  2  0  0  0
 14 15  1  0  0  0
 15 16  2  0  0  0
 12  1  1  0  0  0
  1  2  2  0  0  0
  2  3  1  0  0  0
  3  4  2  0  0  0
  4  5  1  0  0  0
  5  6  2  0  0  0
  6  7  1  0  0  0
  3 27  1  0  0  0
 27 28  1  0  0  0
 28 29  2  0  0  0
 29 30  1  0  0  0
 30 31  1  0  0  0
 30 32  1  0  0  0
 32 33  1  0  0  0
 33 34  1  0  0  0
 34 35  1  0  0  0
 35 36  1  0  0  0
 35 37  1  0  0  0
 37 38  1  0  0  0
 22 17  1  0  0  0
 15 10  1  0  0  0
  6  1  1  0  0  0
 31 27  2  0  0  0
 38 32  1  0  0  0
  7  8  1  0  0  0
  7  9  1  0  0  0
M  END
> <minimizedAffinity>
-6.60090

> <CNNscore>
0.0664635301

> <CNNaffinity>
5.8910155296

> <CNN_VS>
0.3915376961

> <CNNaffinity_variance>
0.0177022759

$$$$
[H]c1nc(N([H])[H])c(-c2nn(-c3c([H])c(OC([H])([H])[H])c([H])c(OC([H])([H])[H])c3[H])c(=O)c([H])c2[H])nc1-c1c([H])nn(C2([H])C([H])([H])C([H])([H])N(C([H])([H])[H])C([H])([H])C2([H])[H])c1[H]


 38 42  0  0  0  0  0  0  0  0999 V2000
   -7.0120   23.3848  -21.1787 C   0  0  0  0  0  0  0  0  0  0  0  0
   -7.0600   22.9545  -20.0488 N   0  0  0  0  0  0  0  0  0  0  0  0
   -6.9335   22.8364  -18.7958 C   0  0  0  0  0  0  0  0  0  0  0  0
   -6.2571   24.0315  -18.3134 C   0  0  0  0  0  0  0  0  0  0  0  0
   -6.0134   24.8169  -19.3534 N   0  0  0  0  0  0  0  0  0  0  0  0
   -6.2033   24.8011  -20.5855 C   0  0  0  0  0  0  0  0  0  0  0  0
   -5.7934   25.6542  -21.5624 N   0  0  0  0  0  0  0  0  0  0  0  0
   -5.1132   25.3420  -22.3406 H   0  0  0  0  0  0  0  0  0  0  0  0
   -6.0592   26.6761  -21.6597 H   0  0  0  0  0  0  0  0  0  0  0  0
   -6.0232   23.7493  -24.6389 N   0  0  0  0  0  0  0  0  0  0  0  0
   -5.9890   23.5016  -23.3809 N   0  0  0  0  0  0  0  0  0  0  0  0
   -6.9569   23.8817  -22.4834 C   0  0  0  0  0  0  0  0  0  0  0  0
   -8.0426   24.5860  -23.0304 C   0  0  0  0  0  0  0  0  0  0  0  0
   -8.1056   24.8608  -24.3535 C   0  0  0  0  0  0  0  0  0  0  0  0
   -7.0808   24.4360  -25.1640 C   0  0  0  0  0  0  0  0  0  0  0  0
   -7.1443   24.6961  -26.3871 O   0  0  0  0  0  0  0  0  0  0  0  0
   -2.7108   22.6178  -25.8765 C   0  0  0  0  0  0  0  0  0  0  0  0
   -2.8531   22.6636  -27.2379 C   0  0  0  0  0  0  0  0  0  0  0  0
   -4.0783   23.0790  -27.7711 C   0  0  0  0  0  0  0  0  0  0  0  0
   -5.1078   23.4314  -26.9263 C   0  0  0  0  0  0  0  0  0  0  0  0
   -4.9840   23.3918  -25.5591 C   0  0  0  0  0  0  0  0  0  0  0  0
   -3.7613   22.9776  -25.0414 C   0  0  0  0  0  0  0  0  0  0  0  0
   -0.2739   22.4872  -25.8271 C   0  0  0  0  0  0  0  0  0  0  0  0
   -1.5230   22.2098  -25.2684 O   0  0  0  0  0  0  0  0  0  0  0  0
   -4.1340   23.0886  -29.1424 O   0  0  0  0  0  0  0  0  0  0  0  0
   -5.3672   23.0575  -29.8246 C   0  0  0  0  0  0  0  0  0  0  0  0
   -7.3560   21.8038  -17.9206 C   0  0  0  0  0  0  0  0  0  0  0  0
   -7.0770   20.4664  -17.9321 C   0  0  0  0  0  0  0  0  0  0  0  0
   -7.7064   19.8846  -16.9343 N   0  0  0  0  0  0  0  0  0  0  0  0
   -8.4074   20.7926  -16.2301 N   0  0  0  0  0  0  0  0  0  0  0  0
   -8.2025   21.9681  -16.8233 C   0  0  0  0  0  0  0  0  0  0  0  0
   -9.2167   20.5195  -15.0549 C   0  0  0  0  0  0  0  0  0  0  0  0
   -9.4878   19.0540  -14.9213 C   0  0  0  0  0  0  0  0  0  0  0  0
  -10.0968   18.6609  -13.6171 C   0  0  0  0  0  0  0  0  0  0  0  0
   -9.7380   19.4323  -12.5083 N   0  0  0  0  0  0  0  0  0  0  0  0
  -10.5533   19.4251  -11.3593 C   0  0  0  0  0  0  0  0  0  0  0  0
   -8.6805   20.3482  -12.5913 C   0  0  0  0  0  0  0  0  0  0  0  0
   -8.5167   21.0862  -13.8658 C   0  0  0  0  0  0  0  0  0  0  0  0
 23 24  1  0  0  0
 24 17  1  0  0  0
 17 18  2  0  0  0
 18 19  1  0  0  0
 19 25  1  0  0  0
 25 26  1  0  0  0
 19 20  2  0  0  0
 20 21  1  0  0  0
 21 22  2  0  0  0
 21 10  1  0  0  0
 10 11  1  0  0  0
 11 12  2  0  0  0
 12 13  1  0  0  0
 13 14  2  0  0  0
 14 15  1  0  0  0
 15 16  2  0  0  0
 12  1  1  0  0  0
  1  2  2  0  0  0
  2  3  1  0  0  0
  3  4  2  0  0  0
  4  5  1  0  0  0
  5  6  2  0  0  0
  6  7  1  0  0  0
  3 27  1  0  0  0
 27 28  1  0  0  0
 28 29  2  0  0  0
 29 30  1  0  0  0
 30 31  1  0  0  0
 30 32  1  0  0  0
 32 33  1  0  0  0
 33 34  1  0  0  0
 34 35  1  0  0  0
 35 36  1  0  0  0
 35 37  1  0  0  0
 37 38  1  0  0  0
 22 17  1  0  0  0
 15 10  1  0  0  0
  6  1  1  0  0  0
 31 27  2  0  0  0
 38 32  1  0  0  0
  7  8  1  0  0  0
  7  9  1  0  0  0
M  END
> <minimizedAffinity>
-7.74515

> <CNNscore>
0.0633516237

> <CNNaffinity>
5.9124827385

> <CNN_VS>
0.3745653927

> <CNNaffinity_variance>
0.0985011309

$$$$
[H]OC([H])([H])C(n1nc([H])c(-c2nc(-c3nn(-c4c(Cl)c(OC([H])([H])[H])c([H])c(OC([H])([H])[H])c4Cl)c(=O)c([H])c3[H])c(N([H])[H])nc2[H])c1[H])(C([H])([H])[H])C([H])([H])[H]


 39 42  0  0  0  0  0  0  0  0999 V2000
   -2.6386   21.3361  -18.8142 C   0  0  0  0  0  0  0  0  0  0  0  0
   -3.8366   21.7234  -18.7689 N   0  0  0  0  0  0  0  0  0  0  0  0
   -4.8745   22.3472  -19.1355 C   0  0  0  0  0  0  0  0  0  0  0  0
   -4.6047   23.1054  -20.3229 C   0  0  0  0  0  0  0  0  0  0  0  0
   -3.3411   22.9141  -20.6613 N   0  0  0  0  0  0  0  0  0  0  0  0
   -2.3780   22.2666  -20.2227 C   0  0  0  0  0  0  0  0  0  0  0  0
   -1.0563   22.3327  -20.5880 N   0  0  0  0  0  0  0  0  0  0  0  0
   -0.6755   22.0726  -21.5460 H   0  0  0  0  0  0  0  0  0  0  0  0
   -0.2893   22.6945  -19.9314 H   0  0  0  0  0  0  0  0  0  0  0  0
    0.6526   21.3226  -17.4718 N   0  0  0  0  0  0  0  0  0  0  0  0
   -0.5153   21.6790  -17.8346 N   0  0  0  0  0  0  0  0  0  0  0  0
   -1.3600   20.9311  -18.6884 C   0  0  0  0  0  0  0  0  0  0  0  0
   -0.7395   19.7343  -19.0797 C   0  0  0  0  0  0  0  0  0  0  0  0
    0.5148   19.3697  -18.6848 C   0  0  0  0  0  0  0  0  0  0  0  0
    1.2443   20.1643  -17.8652 C   0  0  0  0  0  0  0  0  0  0  0  0
    2.4038   19.8922  -17.4729 O   0  0  0  0  0  0  0  0  0  0  0  0
    2.0209   22.5088  -14.2405 C   0  0  0  0  0  0  0  0  0  0  0  0
    2.9993   23.4270  -14.6595 C   0  0  0  0  0  0  0  0  0  0  0  0
    3.2047   23.6816  -15.9952 C   0  0  0  0  0  0  0  0  0  0  0  0
    2.4004   22.9915  -16.9211 C   0  0  0  0  0  0  0  0  0  0  0  0
    2.6662   23.3549  -18.6125 Cl  0  0  0  0  0  0  0  0  0  0  0  0
    1.4505   22.1022  -16.5514 C   0  0  0  0  0  0  0  0  0  0  0  0
    1.2487   21.8537  -15.2191 C   0  0  0  0  0  0  0  0  0  0  0  0
   -0.0060   20.7547  -14.6135 Cl  0  0  0  0  0  0  0  0  0  0  0  0
    1.3634   23.1225  -11.9808 C   0  0  0  0  0  0  0  0  0  0  0  0
    1.7628   22.1981  -12.9328 O   0  0  0  0  0  0  0  0  0  0  0  0
    4.1534   24.5680  -16.4648 O   0  0  0  0  0  0  0  0  0  0  0  0
    5.5291   24.3925  -16.5412 C   0  0  0  0  0  0  0  0  0  0  0  0
   -6.1706   22.3264  -18.4996 C   0  0  0  0  0  0  0  0  0  0  0  0
   -6.9267   23.4392  -18.1912 C   0  0  0  0  0  0  0  0  0  0  0  0
   -8.0977   23.0513  -17.6638 N   0  0  0  0  0  0  0  0  0  0  0  0
   -8.1143   21.7090  -17.6271 N   0  0  0  0  0  0  0  0  0  0  0  0
   -6.9516   21.2713  -18.1306 C   0  0  0  0  0  0  0  0  0  0  0  0
   -9.2617   20.9911  -17.1247 C   0  0  0  0  0  0  0  0  0  0  0  0
   -9.0886   19.5183  -17.1012 C   0  0  0  0  0  0  0  0  0  0  0  0
  -10.4835   21.3094  -17.9965 C   0  0  0  0  0  0  0  0  0  0  0  0
   -9.5536   21.5193  -15.7337 C   0  0  0  0  0  0  0  0  0  0  0  0
  -10.5287   22.4995  -15.8572 O   0  0  0  0  0  0  0  0  0  0  0  0
  -10.5395   23.0995  -15.0350 H   0  0  0  0  0  0  0  0  0  0  0  0
 25 26  1  0  0  0
 26 17  1  0  0  0
 17 18  2  0  0  0
 18 19  1  0  0  0
 19 27  1  0  0  0
 27 28  1  0  0  0
 19 20  2  0  0  0
 20 21  1  0  0  0
 20 22  1  0  0  0
 22 23  2  0  0  0
 23 24  1  0  0  0
 22 10  1  0  0  0
 10 11  1  0  0  0
 11 12  2  0  0  0
 12 13  1  0  0  0
 13 14  2  0  0  0
 14 15  1  0  0  0
 15 16  2  0  0  0
 12  1  1  0  0  0
  1  2  2  0  0  0
  2  3  1  0  0  0
  3  4  2  0  0  0
  4  5  1  0  0  0
  5  6  2  0  0  0
  6  7  1  0  0  0
  3 29  1  0  0  0
 29 30  1  0  0  0
 30 31  2  0  0  0
 31 32  1  0  0  0
 32 33  1  0  0  0
 32 34  1  0  0  0
 34 35  1  0  0  0
 34 36  1  0  0  0
 34 37  1  0  0  0
 37 38  1  0  0  0
 23 17  1  0  0  0
 15 10  1  0  0  0
  6  1  1  0  0  0
 33 29  2  0  0  0
  7  8  1  0  0  0
  7  9  1  0  0  0
 38 39  1  0  0  0
M  END
> <minimizedAffinity>
-5.56319

> <CNNscore>
0.1320380569

> <CNNaffinity>
6.0050706863

> <CNN_VS>
0.7928978801

> <CNNaffinity_variance>
0.1449131370

$$$$
[H]OC([H])([H])C(n1nc([H])c(-c2nc(-c3nn(-c4c(Cl)c(OC([H])([H])[H])c([H])c(OC([H])([H])[H])c4Cl)c(=O)c([H])c3[H])c(N([H])[H])nc2[H])c1[H])(C([H])([H])[H])C([H])([H])[H]


 39 42  0  0  0  0  0  0  0  0999 V2000
   -5.0198   23.1931  -18.6971 C   0  0  0  0  0  0  0  0  0  0  0  0
   -5.2354   23.7387  -19.8120 N   0  0  0  0  0  0  0  0  0  0  0  0
   -5.8603   24.4233  -20.6731 C   0  0  0  0  0  0  0  0  0  0  0  0
   -7.0906   24.9125  -20.1212 C   0  0  0  0  0  0  0  0  0  0  0  0
   -7.1864   24.4854  -18.8737 N   0  0  0  0  0  0  0  0  0  0  0  0
   -6.5016   23.7983  -18.1004 C   0  0  0  0  0  0  0  0  0  0  0  0
   -6.8438   23.2761  -16.8777 N   0  0  0  0  0  0  0  0  0  0  0  0
   -7.0756   23.8504  -16.0135 H   0  0  0  0  0  0  0  0  0  0  0  0
   -6.9416   22.2225  -16.7027 H   0  0  0  0  0  0  0  0  0  0  0  0
   -4.6362   20.2595  -16.7270 N   0  0  0  0  0  0  0  0  0  0  0  0
   -5.0210   21.0959  -17.6073 N   0  0  0  0  0  0  0  0  0  0  0  0
   -4.7194   22.4782  -17.5955 C   0  0  0  0  0  0  0  0  0  0  0  0
   -3.9298   22.8065  -16.4823 C   0  0  0  0  0  0  0  0  0  0  0  0
   -3.5297   21.8980  -15.5460 C   0  0  0  0  0  0  0  0  0  0  0  0
   -3.8785   20.5930  -15.6495 C   0  0  0  0  0  0  0  0  0  0  0  0
   -3.5515   19.7109  -14.8204 O   0  0  0  0  0  0  0  0  0  0  0  0
   -6.5386   17.0994  -16.3872 C   0  0  0  0  0  0  0  0  0  0  0  0
   -5.6938   16.1813  -17.0350 C   0  0  0  0  0  0  0  0  0  0  0  0
   -4.4904   16.5810  -17.5670 C   0  0  0  0  0  0  0  0  0  0  0  0
   -4.1391   17.9375  -17.4372 C   0  0  0  0  0  0  0  0  0  0  0  0
   -2.5904   18.4119  -18.1006 Cl  0  0  0  0  0  0  0  0  0  0  0  0
   -4.9285   18.8462  -16.8200 C   0  0  0  0  0  0  0  0  0  0  0  0
   -6.1257   18.4422  -16.2899 C   0  0  0  0  0  0  0  0  0  0  0  0
   -7.2153   19.5296  -15.4073 Cl  0  0  0  0  0  0  0  0  0  0  0  0
   -8.2799   15.4986  -15.8209 C   0  0  0  0  0  0  0  0  0  0  0  0
   -7.7516   16.7796  -15.8397 O   0  0  0  0  0  0  0  0  0  0  0  0
   -3.6235   15.7258  -18.2178 O   0  0  0  0  0  0  0  0  0  0  0  0
   -3.7142   15.2335  -19.5134 C   0  0  0  0  0  0  0  0  0  0  0  0
   -5.4396   24.7143  -22.0234 C   0  0  0  0  0  0  0  0  0  0  0  0
   -4.1343   24.9049  -22.4296 C   0  0  0  0  0  0  0  0  0  0  0  0
   -4.1031   25.0957  -23.7571 N   0  0  0  0  0  0  0  0  0  0  0  0
   -5.3628   25.0301  -24.2176 N   0  0  0  0  0  0  0  0  0  0  0  0
   -6.1695   24.8008  -23.1719 C   0  0  0  0  0  0  0  0  0  0  0  0
   -5.6510   25.1788  -25.6244 C   0  0  0  0  0  0  0  0  0  0  0  0
   -5.0069   24.1555  -26.4834 C   0  0  0  0  0  0  0  0  0  0  0  0
   -5.1778   26.5592  -26.0982 C   0  0  0  0  0  0  0  0  0  0  0  0
   -7.1583   25.1422  -25.7848 C   0  0  0  0  0  0  0  0  0  0  0  0
   -7.4689   24.0213  -26.5424 O   0  0  0  0  0  0  0  0  0  0  0  0
   -8.3992   24.1086  -26.9463 H   0  0  0  0  0  0  0  0  0  0  0  0
 25 26  1  0  0  0
 26 17  1  0  0  0
 17 18  2  0  0  0
 18 19  1  0  0  0
 19 27  1  0  0  0
 27 28  1  0  0  0
 19 20  2  0  0  0
 20 21  1  0  0  0
 20 22  1  0  0  0
 22 23  2  0  0  0
 23 24  1  0  0  0
 22 10  1  0  0  0
 10 11  1  0  0  0
 11 12  2  0  0  0
 12 13  1  0  0  0
 13 14  2  0  0  0
 14 15  1  0  0  0
 15 16  2  0  0  0
 12  1  1  0  0  0
  1  2  2  0  0  0
  2  3  1  0  0  0
  3  4  2  0  0  0
  4  5  1  0  0  0
  5  6  2  0  0  0
  6  7  1  0  0  0
  3 29  1  0  0  0
 29 30  1  0  0  0
 30 31  2  0  0  0
 31 32  1  0  0  0
 32 33  1  0  0  0
 32 34  1  0  0  0
 34 35  1  0  0  0
 34 36  1  0  0  0
 34 37  1  0  0  0
 37 38  1  0  0  0
 23 17  1  0  0  0
 15 10  1  0  0  0
  6  1  1  0  0  0
 33 29  2  0  0  0
  7  8  1  0  0  0
  7  9  1  0  0  0
 38 39  1  0  0  0
M  END
> <minimizedAffinity>
-5.70882

> <CNNscore>
0.1145574823

> <CNNaffinity>
6.3984041214

> <CNN_VS>
0.7329850793

> <CNNaffinity_variance>
0.5799375772

$$$$
[H]OC([H])([H])C(n1nc([H])c(-c2nc(-c3nn(-c4c(Cl)c(OC([H])([H])[H])c([H])c(OC([H])([H])[H])c4Cl)c(=O)c([H])c3[H])c(N([H])[H])nc2[H])c1[H])(C([H])([H])[H])C([H])([H])[H]


 39 42  0  0  0  0  0  0  0  0999 V2000
   -0.2851   19.3379  -20.1036 C   0  0  0  0  0  0  0  0  0  0  0  0
   -0.2683   18.1170  -19.7931 N   0  0  0  0  0  0  0  0  0  0  0  0
    0.2287   16.9686  -19.6067 C   0  0  0  0  0  0  0  0  0  0  0  0
    1.6278   16.9755  -19.9234 C   0  0  0  0  0  0  0  0  0  0  0  0
    1.9595   18.1928  -20.3183 N   0  0  0  0  0  0  0  0  0  0  0  0
    1.3818   19.2799  -20.4723 C   0  0  0  0  0  0  0  0  0  0  0  0
    1.8375   20.4189  -21.0884 N   0  0  0  0  0  0  0  0  0  0  0  0
    2.6564   21.0075  -20.7516 H   0  0  0  0  0  0  0  0  0  0  0  0
    1.4159   20.7947  -22.0002 H   0  0  0  0  0  0  0  0  0  0  0  0
   -1.2677   21.9530  -22.3013 N   0  0  0  0  0  0  0  0  0  0  0  0
   -0.8849   20.8314  -21.8343 N   0  0  0  0  0  0  0  0  0  0  0  0
   -0.4612   20.6126  -20.5023 C   0  0  0  0  0  0  0  0  0  0  0  0
   -0.5253   21.8007  -19.7574 C   0  0  0  0  0  0  0  0  0  0  0  0
   -0.9341   22.9953  -20.2749 C   0  0  0  0  0  0  0  0  0  0  0  0
   -1.3169   23.0975  -21.5704 C   0  0  0  0  0  0  0  0  0  0  0  0
   -1.6943   24.1652  -22.1090 O   0  0  0  0  0  0  0  0  0  0  0  0
   -3.6704   22.1602  -25.1129 C   0  0  0  0  0  0  0  0  0  0  0  0
   -2.8303   22.4993  -26.1878 C   0  0  0  0  0  0  0  0  0  0  0  0
   -1.4743   22.6412  -26.0084 C   0  0  0  0  0  0  0  0  0  0  0  0
   -0.9632   22.4336  -24.7137 C   0  0  0  0  0  0  0  0  0  0  0  0
    0.7689   22.5953  -24.5206 Cl  0  0  0  0  0  0  0  0  0  0  0  0
   -1.7436   22.1063  -23.6583 C   0  0  0  0  0  0  0  0  0  0  0  0
   -3.0939   21.9643  -23.8432 C   0  0  0  0  0  0  0  0  0  0  0  0
   -4.2074   21.4804  -22.5490 Cl  0  0  0  0  0  0  0  0  0  0  0  0
   -5.9165   23.0606  -25.3568 C   0  0  0  0  0  0  0  0  0  0  0  0
   -5.0270   22.0080  -25.2111 O   0  0  0  0  0  0  0  0  0  0  0  0
   -0.6023   22.9774  -27.0247 O   0  0  0  0  0  0  0  0  0  0  0  0
    0.1313   22.1278  -27.8427 C   0  0  0  0  0  0  0  0  0  0  0  0
   -0.4592   15.7906  -19.1335 C   0  0  0  0  0  0  0  0  0  0  0  0
   -0.1005   14.4883  -19.4172 C   0  0  0  0  0  0  0  0  0  0  0  0
   -0.9200   13.6478  -18.7679 N   0  0  0  0  0  0  0  0  0  0  0  0
   -1.8006   14.3815  -18.0682 N   0  0  0  0  0  0  0  0  0  0  0  0
   -1.5235   15.6742  -18.2891 C   0  0  0  0  0  0  0  0  0  0  0  0
   -2.8068   13.7533  -17.2451 C   0  0  0  0  0  0  0  0  0  0  0  0
   -3.7793   14.7028  -16.6514 C   0  0  0  0  0  0  0  0  0  0  0  0
   -2.1261   12.9951  -16.0980 C   0  0  0  0  0  0  0  0  0  0  0  0
   -3.5170   12.7245  -18.1032 C   0  0  0  0  0  0  0  0  0  0  0  0
   -3.9737   13.3757  -19.2409 O   0  0  0  0  0  0  0  0  0  0  0  0
   -4.7110   12.8368  -19.6904 H   0  0  0  0  0  0  0  0  0  0  0  0
 25 26  1  0  0  0
 26 17  1  0  0  0
 17 18  2  0  0  0
 18 19  1  0  0  0
 19 27  1  0  0  0
 27 28  1  0  0  0
 19 20  2  0  0  0
 20 21  1  0  0  0
 20 22  1  0  0  0
 22 23  2  0  0  0
 23 24  1  0  0  0
 22 10  1  0  0  0
 10 11  1  0  0  0
 11 12  2  0  0  0
 12 13  1  0  0  0
 13 14  2  0  0  0
 14 15  1  0  0  0
 15 16  2  0  0  0
 12  1  1  0  0  0
  1  2  2  0  0  0
  2  3  1  0  0  0
  3  4  2  0  0  0
  4  5  1  0  0  0
  5  6  2  0  0  0
  6  7  1  0  0  0
  3 29  1  0  0  0
 29 30  1  0  0  0
 30 31  2  0  0  0
 31 32  1  0  0  0
 32 33  1  0  0  0
 32 34  1  0  0  0
 34 35  1  0  0  0
 34 36  1  0  0  0
 34 37  1  0  0  0
 37 38  1  0  0  0
 23 17  1  0  0  0
 15 10  1  0  0  0
  6  1  1  0  0  0
 33 29  2  0  0  0
  7  8  1  0  0  0
  7  9  1  0  0  0
 38 39  1  0  0  0
M  END
> <minimizedAffinity>
-6.04403

> <CNNscore>
0.1049222723

> <CNNaffinity>
6.2479524612

> <CNN_VS>
0.6555493474

> <CNNaffinity_variance>
0.0401053168

$$$$
[H]OC([H])([H])C(n1nc([H])c(-c2nc(-c3nn(-c4c(Cl)c(OC([H])([H])[H])c([H])c(OC([H])([H])[H])c4Cl)c(=O)c([H])c3[H])c(N([H])[H])nc2[H])c1[H])(C([H])([H])[H])C([H])([H])[H]


 39 42  0  0  0  0  0  0  0  0999 V2000
   -5.5077   22.8452  -19.0621 C   0  0  0  0  0  0  0  0  0  0  0  0
   -5.6514   23.4011  -20.1836 N   0  0  0  0  0  0  0  0  0  0  0  0
   -5.9458   24.3234  -20.9980 C   0  0  0  0  0  0  0  0  0  0  0  0
   -6.4148   25.4797  -20.2905 C   0  0  0  0  0  0  0  0  0  0  0  0
   -6.3950   25.2124  -18.9958 N   0  0  0  0  0  0  0  0  0  0  0  0
   -6.0819   24.2500  -18.2782 C   0  0  0  0  0  0  0  0  0  0  0  0
   -6.3104   24.0638  -16.9374 N   0  0  0  0  0  0  0  0  0  0  0  0
   -5.8951   24.6589  -16.1604 H   0  0  0  0  0  0  0  0  0  0  0  0
   -6.9703   23.3071  -16.5600 H   0  0  0  0  0  0  0  0  0  0  0  0
   -6.4691   20.3660  -16.7034 N   0  0  0  0  0  0  0  0  0  0  0  0
   -6.4894   21.2534  -17.6170 N   0  0  0  0  0  0  0  0  0  0  0  0
   -5.4066   22.1042  -17.9416 C   0  0  0  0  0  0  0  0  0  0  0  0
   -4.2984   21.8349  -17.1231 C   0  0  0  0  0  0  0  0  0  0  0  0
   -4.2953   20.8828  -16.1456 C   0  0  0  0  0  0  0  0  0  0  0  0
   -5.3915   20.1215  -15.9127 C   0  0  0  0  0  0  0  0  0  0  0  0
   -5.4568   19.2373  -15.0259 O   0  0  0  0  0  0  0  0  0  0  0  0
   -8.6320   17.3710  -16.9726 C   0  0  0  0  0  0  0  0  0  0  0  0
   -9.6076   17.6289  -15.9939 C   0  0  0  0  0  0  0  0  0  0  0  0
   -9.5797   18.7888  -15.2558 C   0  0  0  0  0  0  0  0  0  0  0  0
   -8.5425   19.7031  -15.5180 C   0  0  0  0  0  0  0  0  0  0  0  0
   -8.5474   21.1820  -14.5818 Cl  0  0  0  0  0  0  0  0  0  0  0  0
   -7.5888   19.4857  -16.4524 C   0  0  0  0  0  0  0  0  0  0  0  0
   -7.6224   18.3291  -17.1864 C   0  0  0  0  0  0  0  0  0  0  0  0
   -6.4620   17.9623  -18.4777 Cl  0  0  0  0  0  0  0  0  0  0  0  0
   -8.3518   14.9698  -17.2386 C   0  0  0  0  0  0  0  0  0  0  0  0
   -8.5893   16.2392  -17.7411 O   0  0  0  0  0  0  0  0  0  0  0  0
  -10.5072   19.0930  -14.2793 O   0  0  0  0  0  0  0  0  0  0  0  0
  -10.5703   18.6153  -12.9766 C   0  0  0  0  0  0  0  0  0  0  0  0
   -5.8340   24.2802  -22.4368 C   0  0  0  0  0  0  0  0  0  0  0  0
   -6.2241   23.2252  -23.2368 C   0  0  0  0  0  0  0  0  0  0  0  0
   -6.0323   23.5469  -24.5250 N   0  0  0  0  0  0  0  0  0  0  0  0
   -5.5275   24.7903  -24.5737 N   0  0  0  0  0  0  0  0  0  0  0  0
   -5.4070   25.2328  -23.3141 C   0  0  0  0  0  0  0  0  0  0  0  0
   -5.2316   25.4259  -25.8357 C   0  0  0  0  0  0  0  0  0  0  0  0
   -4.1820   24.7378  -26.6260 C   0  0  0  0  0  0  0  0  0  0  0  0
   -4.7656   26.8659  -25.5840 C   0  0  0  0  0  0  0  0  0  0  0  0
   -6.5277   25.5045  -26.6187 C   0  0  0  0  0  0  0  0  0  0  0  0
   -6.6477   24.3269  -27.3438 O   0  0  0  0  0  0  0  0  0  0  0  0
   -7.3066   24.4441  -28.1107 H   0  0  0  0  0  0  0  0  0  0  0  0
 25 26  1  0  0  0
 26 17  1  0  0  0
 17 18  2  0  0  0
 18 19  1  0  0  0
 19 27  1  0  0  0
 27 28  1  0  0  0
 19 20  2  0  0  0
 20 21  1  0  0  0
 20 22  1  0  0  0
 22 23  2  0  0  0
 23 24  1  0  0  0
 22 10  1  0  0  0
 10 11  1  0  0  0
 11 12  2  0  0  0
 12 13  1  0  0  0
 13 14  2  0  0  0
 14 15  1  0  0  0
 15 16  2  0  0  0
 12  1  1  0  0  0
  1  2  2  0  0  0
  2  3  1  0  0  0
  3  4  2  0  0  0
  4  5  1  0  0  0
  5  6  2  0  0  0
  6  7  1  0  0  0
  3 29  1  0  0  0
 29 30  1  0  0  0
 30 31  2  0  0  0
 31 32  1  0  0  0
 32 33  1  0  0  0
 32 34  1  0  0  0
 34 35  1  0  0  0
 34 36  1  0  0  0
 34 37  1  0  0  0
 37 38  1  0  0  0
 23 17  1  0  0  0
 15 10  1  0  0  0
  6  1  1  0  0  0
 33 29  2  0  0  0
  7  8  1  0  0  0
  7  9  1  0  0  0
 38 39  1  0  0  0
M  END
> <minimizedAffinity>
-5.94187

> <CNNscore>
0.0968141630

> <CNNaffinity>
6.2937932014

> <CNN_VS>
0.6093283296

> <CNNaffinity_variance>
0.4389511943

$$$$
[H]OC([H])([H])C(n1nc([H])c(-c2nc(-c3nn(-c4c(Cl)c(OC([H])([H])[H])c([H])c(OC([H])([H])[H])c4Cl)c(=O)c([H])c3[H])c(N([H])[H])nc2[H])c1[H])(C([H])([H])[H])C([H])([H])[H]


 39 42  0  0  0  0  0  0  0  0999 V2000
   -3.9792   19.8553  -17.8749 C   0  0  0  0  0  0  0  0  0  0  0  0
   -4.9043   19.0957  -17.4817 N   0  0  0  0  0  0  0  0  0  0  0  0
   -5.4560   18.0071  -17.1483 C   0  0  0  0  0  0  0  0  0  0  0  0
   -4.5245   16.9224  -17.2638 C   0  0  0  0  0  0  0  0  0  0  0  0
   -3.3711   17.4074  -17.6910 N   0  0  0  0  0  0  0  0  0  0  0  0
   -2.9199   18.5211  -17.9996 C   0  0  0  0  0  0  0  0  0  0  0  0
   -1.7358   18.8294  -18.6222 N   0  0  0  0  0  0  0  0  0  0  0  0
   -0.7697   18.6541  -18.2145 H   0  0  0  0  0  0  0  0  0  0  0  0
   -1.6898   19.2491  -19.6082 H   0  0  0  0  0  0  0  0  0  0  0  0
   -2.5978   22.0088  -20.3424 N   0  0  0  0  0  0  0  0  0  0  0  0
   -3.2132   21.0577  -19.7599 N   0  0  0  0  0  0  0  0  0  0  0  0
   -3.1139   20.7550  -18.3814 C   0  0  0  0  0  0  0  0  0  0  0  0
   -2.2474   21.6509  -17.7356 C   0  0  0  0  0  0  0  0  0  0  0  0
   -1.5925   22.6623  -18.3761 C   0  0  0  0  0  0  0  0  0  0  0  0
   -1.7551   22.8639  -19.7059 C   0  0  0  0  0  0  0  0  0  0  0  0
   -1.1771   23.7678  -20.3549 O   0  0  0  0  0  0  0  0  0  0  0  0
   -4.0648   23.5292  -23.3849 C   0  0  0  0  0  0  0  0  0  0  0  0
   -3.1890   23.0759  -24.3867 C   0  0  0  0  0  0  0  0  0  0  0  0
   -2.1288   22.2553  -24.0811 C   0  0  0  0  0  0  0  0  0  0  0  0
   -1.9564   21.8881  -22.7335 C   0  0  0  0  0  0  0  0  0  0  0  0
   -0.6144   20.8222  -22.3781 Cl  0  0  0  0  0  0  0  0  0  0  0  0
   -2.7807   22.3064  -21.7458 C   0  0  0  0  0  0  0  0  0  0  0  0
   -3.8368   23.1224  -22.0562 C   0  0  0  0  0  0  0  0  0  0  0  0
   -5.0169   23.6849  -20.8563 Cl  0  0  0  0  0  0  0  0  0  0  0  0
   -5.9082   24.3214  -24.7594 C   0  0  0  0  0  0  0  0  0  0  0  0
   -5.1358   24.3514  -23.6093 O   0  0  0  0  0  0  0  0  0  0  0  0
   -1.2343   21.7840  -25.0214 O   0  0  0  0  0  0  0  0  0  0  0  0
   -0.9052   22.3434  -26.2494 C   0  0  0  0  0  0  0  0  0  0  0  0
   -6.8153   17.8246  -16.6970 C   0  0  0  0  0  0  0  0  0  0  0  0
   -7.2641   16.7780  -15.9171 C   0  0  0  0  0  0  0  0  0  0  0  0
   -8.5640   16.9552  -15.6369 N   0  0  0  0  0  0  0  0  0  0  0  0
   -8.9641   18.0973  -16.2189 N   0  0  0  0  0  0  0  0  0  0  0  0
   -7.9096   18.6218  -16.8592 C   0  0  0  0  0  0  0  0  0  0  0  0
  -10.3211   18.5697  -16.0790 C   0  0  0  0  0  0  0  0  0  0  0  0
  -10.7480   18.7699  -14.6728 C   0  0  0  0  0  0  0  0  0  0  0  0
  -11.2806   17.5618  -16.7251 C   0  0  0  0  0  0  0  0  0  0  0  0
  -10.4343   19.8625  -16.8632 C   0  0  0  0  0  0  0  0  0  0  0  0
  -11.5528   19.7577  -17.6787 O   0  0  0  0  0  0  0  0  0  0  0  0
  -11.5060   20.4328  -18.4391 H   0  0  0  0  0  0  0  0  0  0  0  0
 25 26  1  0  0  0
 26 17  1  0  0  0
 17 18  2  0  0  0
 18 19  1  0  0  0
 19 27  1  0  0  0
 27 28  1  0  0  0
 19 20  2  0  0  0
 20 21  1  0  0  0
 20 22  1  0  0  0
 22 23  2  0  0  0
 23 24  1  0  0  0
 22 10  1  0  0  0
 10 11  1  0  0  0
 11 12  2  0  0  0
 12 13  1  0  0  0
 13 14  2  0  0  0
 14 15  1  0  0  0
 15 16  2  0  0  0
 12  1  1  0  0  0
  1  2  2  0  0  0
  2  3  1  0  0  0
  3  4  2  0  0  0
  4  5  1  0  0  0
  5  6  2  0  0  0
  6  7  1  0  0  0
  3 29  1  0  0  0
 29 30  1  0  0  0
 30 31  2  0  0  0
 31 32  1  0  0  0
 32 33  1  0  0  0
 32 34  1  0  0  0
 34 35  1  0  0  0
 34 36  1  0  0  0
 34 37  1  0  0  0
 37 38  1  0  0  0
 23 17  1  0  0  0
 15 10  1  0  0  0
  6  1  1  0  0  0
 33 29  2  0  0  0
  7  8  1  0  0  0
  7  9  1  0  0  0
 38 39  1  0  0  0
M  END
> <minimizedAffinity>
-5.79795

> <CNNscore>
0.0965471119

> <CNNaffinity>
6.0269041061

> <CNN_VS>
0.5818802118

> <CNNaffinity_variance>
0.1109414920

$$$$
[H]OC([H])([H])C(n1nc([H])c(-c2nc(-c3nn(-c4c(Cl)c(OC([H])([H])[H])c([H])c(OC([H])([H])[H])c4Cl)c(=O)c([H])c3[H])c(N([H])[H])nc2[H])c1[H])(C([H])([H])[H])C([H])([H])[H]


 39 42  0  0  0  0  0  0  0  0999 V2000
   -5.2526   22.5666  -20.3524 C   0  0  0  0  0  0  0  0  0  0  0  0
   -5.2635   22.4653  -21.6082 N   0  0  0  0  0  0  0  0  0  0  0  0
   -5.7219   22.1693  -22.7496 C   0  0  0  0  0  0  0  0  0  0  0  0
   -7.0234   21.5795  -22.6245 C   0  0  0  0  0  0  0  0  0  0  0  0
   -7.3353   21.5270  -21.3408 N   0  0  0  0  0  0  0  0  0  0  0  0
   -6.8013   21.8508  -20.2688 C   0  0  0  0  0  0  0  0  0  0  0  0
   -7.1841   21.5427  -18.9869 N   0  0  0  0  0  0  0  0  0  0  0  0
   -8.0871   21.8644  -18.5271 H   0  0  0  0  0  0  0  0  0  0  0  0
   -6.6054   20.9082  -18.3444 H   0  0  0  0  0  0  0  0  0  0  0  0
   -3.8984   21.6386  -17.1998 N   0  0  0  0  0  0  0  0  0  0  0  0
   -4.3088   21.6157  -18.4054 N   0  0  0  0  0  0  0  0  0  0  0  0
   -5.0709   22.6374  -19.0195 C   0  0  0  0  0  0  0  0  0  0  0  0
   -5.3106   23.6888  -18.1208 C   0  0  0  0  0  0  0  0  0  0  0  0
   -4.8668   23.6952  -16.8304 C   0  0  0  0  0  0  0  0  0  0  0  0
   -4.1449   22.6599  -16.3380 C   0  0  0  0  0  0  0  0  0  0  0  0
   -3.7155   22.6000  -15.1614 O   0  0  0  0  0  0  0  0  0  0  0  0
   -3.0373   18.4320  -15.5575 C   0  0  0  0  0  0  0  0  0  0  0  0
   -1.6338   18.4328  -15.6378 C   0  0  0  0  0  0  0  0  0  0  0  0
   -0.9585   19.4866  -16.2073 C   0  0  0  0  0  0  0  0  0  0  0  0
   -1.7233   20.5590  -16.7028 C   0  0  0  0  0  0  0  0  0  0  0  0
   -0.8358   21.8977  -17.3985 Cl  0  0  0  0  0  0  0  0  0  0  0  0
   -3.0743   20.5897  -16.6410 C   0  0  0  0  0  0  0  0  0  0  0  0
   -3.7421   19.5378  -16.0707 C   0  0  0  0  0  0  0  0  0  0  0  0
   -5.5058   19.4935  -15.8803 Cl  0  0  0  0  0  0  0  0  0  0  0  0
   -3.7681   17.0879  -13.6668 C   0  0  0  0  0  0  0  0  0  0  0  0
   -3.7792   17.4192  -15.0123 O   0  0  0  0  0  0  0  0  0  0  0  0
    0.4167   19.5396  -16.3182 O   0  0  0  0  0  0  0  0  0  0  0  0
    1.2318   18.8681  -17.2203 C   0  0  0  0  0  0  0  0  0  0  0  0
   -5.0805   22.3828  -24.0254 C   0  0  0  0  0  0  0  0  0  0  0  0
   -4.0961   21.5819  -24.5683 C   0  0  0  0  0  0  0  0  0  0  0  0
   -3.7710   22.0380  -25.7873 N   0  0  0  0  0  0  0  0  0  0  0  0
   -4.5276   23.1173  -26.0442 N   0  0  0  0  0  0  0  0  0  0  0  0
   -5.3172   23.3261  -24.9812 C   0  0  0  0  0  0  0  0  0  0  0  0
   -4.4189   23.8224  -27.2993 C   0  0  0  0  0  0  0  0  0  0  0  0
   -3.2337   23.4404  -28.1049 C   0  0  0  0  0  0  0  0  0  0  0  0
   -4.3417   25.3311  -27.0310 C   0  0  0  0  0  0  0  0  0  0  0  0
   -5.6979   23.5697  -28.0735 C   0  0  0  0  0  0  0  0  0  0  0  0
   -6.5369   24.6540  -27.8560 O   0  0  0  0  0  0  0  0  0  0  0  0
   -7.5007   24.4106  -28.0750 H   0  0  0  0  0  0  0  0  0  0  0  0
 25 26  1  0  0  0
 26 17  1  0  0  0
 17 18  2  0  0  0
 18 19  1  0  0  0
 19 27  1  0  0  0
 27 28  1  0  0  0
 19 20  2  0  0  0
 20 21  1  0  0  0
 20 22  1  0  0  0
 22 23  2  0  0  0
 23 24  1  0  0  0
 22 10  1  0  0  0
 10 11  1  0  0  0
 11 12  2  0  0  0
 12 13  1  0  0  0
 13 14  2  0  0  0
 14 15  1  0  0  0
 15 16  2  0  0  0
 12  1  1  0  0  0
  1  2  2  0  0  0
  2  3  1  0  0  0
  3  4  2  0  0  0
  4  5  1  0  0  0
  5  6  2  0  0  0
  6  7  1  0  0  0
  3 29  1  0  0  0
 29 30  1  0  0  0
 30 31  2  0  0  0
 31 32  1  0  0  0
 32 33  1  0  0  0
 32 34  1  0  0  0
 34 35  1  0  0  0
 34 36  1  0  0  0
 34 37  1  0  0  0
 37 38  1  0  0  0
 23 17  1  0  0  0
 15 10  1  0  0  0
  6  1  1  0  0  0
 33 29  2  0  0  0
  7  8  1  0  0  0
  7  9  1  0  0  0
 38 39  1  0  0  0
M  END
> <minimizedAffinity>
-5.58199

> <CNNscore>
0.0892326459

> <CNNaffinity>
6.5278367996

> <CNN_VS>
0.5824961662

> <CNNaffinity_variance>
0.4480237365

$$$$
[H]OC([H])([H])C(n1nc([H])c(-c2nc(-c3nn(-c4c(Cl)c(OC([H])([H])[H])c([H])c(OC([H])([H])[H])c4Cl)c(=O)c([H])c3[H])c(N([H])[H])nc2[H])c1[H])(C([H])([H])[H])C([H])([H])[H]


 39 42  0  0  0  0  0  0  0  0999 V2000
   -5.5508   22.9170  -19.2356 C   0  0  0  0  0  0  0  0  0  0  0  0
   -5.8311   23.5607  -20.2818 N   0  0  0  0  0  0  0  0  0  0  0  0
   -6.2340   24.5390  -20.9754 C   0  0  0  0  0  0  0  0  0  0  0  0
   -6.6442   25.6170  -20.1227 C   0  0  0  0  0  0  0  0  0  0  0  0
   -6.4735   25.2424  -18.8663 N   0  0  0  0  0  0  0  0  0  0  0  0
   -6.0621   24.2329  -18.2740 C   0  0  0  0  0  0  0  0  0  0  0  0
   -6.1346   23.9277  -16.9375 N   0  0  0  0  0  0  0  0  0  0  0  0
   -5.6468   24.4675  -16.1622 H   0  0  0  0  0  0  0  0  0  0  0  0
   -6.7321   23.1224  -16.5570 H   0  0  0  0  0  0  0  0  0  0  0  0
   -6.1044   20.1254  -17.1060 N   0  0  0  0  0  0  0  0  0  0  0  0
   -6.2714   21.0888  -17.9225 N   0  0  0  0  0  0  0  0  0  0  0  0
   -5.3092   22.0877  -18.2018 C   0  0  0  0  0  0  0  0  0  0  0  0
   -4.1368   21.8715  -17.4606 C   0  0  0  0  0  0  0  0  0  0  0  0
   -3.9762   20.8360  -16.5866 C   0  0  0  0  0  0  0  0  0  0  0  0
   -4.9665   19.9329  -16.3887 C   0  0  0  0  0  0  0  0  0  0  0  0
   -4.8862   18.9653  -15.5952 O   0  0  0  0  0  0  0  0  0  0  0  0
   -9.1721   18.5072  -15.8054 C   0  0  0  0  0  0  0  0  0  0  0  0
   -9.1709   17.2842  -16.4985 C   0  0  0  0  0  0  0  0  0  0  0  0
   -8.1605   16.9698  -17.3767 C   0  0  0  0  0  0  0  0  0  0  0  0
   -7.1327   17.9149  -17.5526 C   0  0  0  0  0  0  0  0  0  0  0  0
   -5.8469   17.4767  -18.6564 Cl  0  0  0  0  0  0  0  0  0  0  0  0
   -7.1037   19.1002  -16.9014 C   0  0  0  0  0  0  0  0  0  0  0  0
   -8.1120   19.4076  -16.0260 C   0  0  0  0  0  0  0  0  0  0  0  0
   -8.1499   20.9034  -15.0721 Cl  0  0  0  0  0  0  0  0  0  0  0  0
  -11.5028   18.8087  -15.1793 C   0  0  0  0  0  0  0  0  0  0  0  0
  -10.1437   18.8936  -14.9223 O   0  0  0  0  0  0  0  0  0  0  0  0
   -8.1097   15.7876  -18.0881 O   0  0  0  0  0  0  0  0  0  0  0  0
   -7.8062   14.5158  -17.6193 C   0  0  0  0  0  0  0  0  0  0  0  0
   -6.2837   24.6204  -22.4161 C   0  0  0  0  0  0  0  0  0  0  0  0
   -7.3500   24.2317  -23.2017 C   0  0  0  0  0  0  0  0  0  0  0  0
   -7.0791   24.5015  -24.4875 N   0  0  0  0  0  0  0  0  0  0  0  0
   -5.8591   25.0592  -24.5486 N   0  0  0  0  0  0  0  0  0  0  0  0
   -5.3785   25.1304  -23.2992 C   0  0  0  0  0  0  0  0  0  0  0  0
   -5.2942   25.4806  -25.8086 C   0  0  0  0  0  0  0  0  0  0  0  0
   -4.1401   24.6635  -26.2556 C   0  0  0  0  0  0  0  0  0  0  0  0
   -4.8261   26.9374  -25.6951 C   0  0  0  0  0  0  0  0  0  0  0  0
   -6.4067   25.4463  -26.8383 C   0  0  0  0  0  0  0  0  0  0  0  0
   -6.4696   24.1533  -27.3397 O   0  0  0  0  0  0  0  0  0  0  0  0
   -6.9588   24.1388  -28.2322 H   0  0  0  0  0  0  0  0  0  0  0  0
 25 26  1  0  0  0
 26 17  1  0  0  0
 17 18  2  0  0  0
 18 19  1  0  0  0
 19 27  1  0  0  0
 27 28  1  0  0  0
 19 20  2  0  0  0
 20 21  1  0  0  0
 20 22  1  0  0  0
 22 23  2  0  0  0
 23 24  1  0  0  0
 22 10  1  0  0  0
 10 11  1  0  0  0
 11 12  2  0  0  0
 12 13  1  0  0  0
 13 14  2  0  0  0
 14 15  1  0  0  0
 15 16  2  0  0  0
 12  1  1  0  0  0
  1  2  2  0  0  0
  2  3  1  0  0  0
  3  4  2  0  0  0
  4  5  1  0  0  0
  5  6  2  0  0  0
  6  7  1  0  0  0
  3 29  1  0  0  0
 29 30  1  0  0  0
 30 31  2  0  0  0
 31 32  1  0  0  0
 32 33  1  0  0  0
 32 34  1  0  0  0
 34 35  1  0  0  0
 34 36  1  0  0  0
 34 37  1  0  0  0
 37 38  1  0  0  0
 23 17  1  0  0  0
 15 10  1  0  0  0
  6  1  1  0  0  0
 33 29  2  0  0  0
  7  8  1  0  0  0
  7  9  1  0  0  0
 38 39  1  0  0  0
M  END
> <minimizedAffinity>
-6.05599

> <CNNscore>
0.0843346268

> <CNNaffinity>
6.2495856285

> <CNN_VS>
0.5270564556

> <CNNaffinity_variance>
0.3144854903

$$$$
[H]OC([H])([H])C(n1nc([H])c(-c2nc(-c3nn(-c4c(Cl)c(OC([H])([H])[H])c([H])c(OC([H])([H])[H])c4Cl)c(=O)c([H])c3[H])c(N([H])[H])nc2[H])c1[H])(C([H])([H])[H])C([H])([H])[H]


 39 42  0  0  0  0  0  0  0  0999 V2000
   -4.8830   21.9568  -20.4422 C   0  0  0  0  0  0  0  0  0  0  0  0
   -5.1421   22.5479  -21.5242 N   0  0  0  0  0  0  0  0  0  0  0  0
   -5.4479   23.5159  -22.2792 C   0  0  0  0  0  0  0  0  0  0  0  0
   -5.6335   24.7096  -21.5058 C   0  0  0  0  0  0  0  0  0  0  0  0
   -5.4280   24.4174  -20.2328 N   0  0  0  0  0  0  0  0  0  0  0  0
   -5.1258   23.4091  -19.5763 C   0  0  0  0  0  0  0  0  0  0  0  0
   -5.1443   23.2286  -18.2155 N   0  0  0  0  0  0  0  0  0  0  0  0
   -4.5280   23.7499  -17.5235 H   0  0  0  0  0  0  0  0  0  0  0  0
   -5.8234   22.5568  -17.7277 H   0  0  0  0  0  0  0  0  0  0  0  0
   -5.8125   19.7814  -17.7893 N   0  0  0  0  0  0  0  0  0  0  0  0
   -5.8348   20.6631  -18.7083 N   0  0  0  0  0  0  0  0  0  0  0  0
   -4.6899   21.1878  -19.3530 C   0  0  0  0  0  0  0  0  0  0  0  0
   -3.5198   20.5998  -18.8474 C   0  0  0  0  0  0  0  0  0  0  0  0
   -3.5138   19.6590  -17.8591 C   0  0  0  0  0  0  0  0  0  0  0  0
   -4.6713   19.2264  -17.3035 C   0  0  0  0  0  0  0  0  0  0  0  0
   -4.7343   18.3723  -16.3876 O   0  0  0  0  0  0  0  0  0  0  0  0
   -8.8122   19.5900  -15.6245 C   0  0  0  0  0  0  0  0  0  0  0  0
   -9.4148   18.4001  -16.0686 C   0  0  0  0  0  0  0  0  0  0  0  0
   -8.8373   17.6419  -17.0599 C   0  0  0  0  0  0  0  0  0  0  0  0
   -7.6254   18.1008  -17.6086 C   0  0  0  0  0  0  0  0  0  0  0  0
   -6.9003   17.1023  -18.8498 Cl  0  0  0  0  0  0  0  0  0  0  0  0
   -7.0194   19.2406  -17.2040 C   0  0  0  0  0  0  0  0  0  0  0  0
   -7.5982   19.9913  -16.2145 C   0  0  0  0  0  0  0  0  0  0  0  0
   -6.8670   21.4705  -15.5619 Cl  0  0  0  0  0  0  0  0  0  0  0  0
   -9.2659   20.1179  -13.2941 C   0  0  0  0  0  0  0  0  0  0  0  0
   -9.3284   20.4000  -14.6494 O   0  0  0  0  0  0  0  0  0  0  0  0
   -9.3856   16.4688  -17.5390 O   0  0  0  0  0  0  0  0  0  0  0  0
   -9.7504   15.3362  -16.8225 C   0  0  0  0  0  0  0  0  0  0  0  0
   -5.5901   23.4860  -23.7157 C   0  0  0  0  0  0  0  0  0  0  0  0
   -6.7547   23.1952  -24.3970 C   0  0  0  0  0  0  0  0  0  0  0  0
   -6.5426   23.3165  -25.7161 N   0  0  0  0  0  0  0  0  0  0  0  0
   -5.2638   23.6822  -25.9010 N   0  0  0  0  0  0  0  0  0  0  0  0
   -4.6886   23.7838  -24.6945 C   0  0  0  0  0  0  0  0  0  0  0  0
   -4.7382   23.9120  -27.2258 C   0  0  0  0  0  0  0  0  0  0  0  0
   -5.5581   23.3203  -28.3109 C   0  0  0  0  0  0  0  0  0  0  0  0
   -3.3264   23.3193  -27.3236 C   0  0  0  0  0  0  0  0  0  0  0  0
   -4.6084   25.4116  -27.4083 C   0  0  0  0  0  0  0  0  0  0  0  0
   -5.8799   25.9564  -27.2912 O   0  0  0  0  0  0  0  0  0  0  0  0
   -5.9115   26.8845  -27.7081 H   0  0  0  0  0  0  0  0  0  0  0  0
 25 26  1  0  0  0
 26 17  1  0  0  0
 17 18  2  0  0  0
 18 19  1  0  0  0
 19 27  1  0  0  0
 27 28  1  0  0  0
 19 20  2  0  0  0
 20 21  1  0  0  0
 20 22  1  0  0  0
 22 23  2  0  0  0
 23 24  1  0  0  0
 22 10  1  0  0  0
 10 11  1  0  0  0
 11 12  2  0  0  0
 12 13  1  0  0  0
 13 14  2  0  0  0
 14 15  1  0  0  0
 15 16  2  0  0  0
 12  1  1  0  0  0
  1  2  2  0  0  0
  2  3  1  0  0  0
  3  4  2  0  0  0
  4  5  1  0  0  0
  5  6  2  0  0  0
  6  7  1  0  0  0
  3 29  1  0  0  0
 29 30  1  0  0  0
 30 31  2  0  0  0
 31 32  1  0  0  0
 32 33  1  0  0  0
 32 34  1  0  0  0
 34 35  1  0  0  0
 34 36  1  0  0  0
 34 37  1  0  0  0
 37 38  1  0  0  0
 23 17  1  0  0  0
 15 10  1  0  0  0
  6  1  1  0  0  0
 33 29  2  0  0  0
  7  8  1  0  0  0
  7  9  1  0  0  0
 38 39  1  0  0  0
M  END
> <minimizedAffinity>
-5.74357

> <CNNscore>
0.0711497217

> <CNNaffinity>
6.4286842346

> <CNN_VS>
0.4573991001

> <CNNaffinity_variance>
0.7455042005

$$$$
[H]OC([H])([H])C(n1nc([H])c(-c2nc(-c3nn(-c4c(Cl)c(OC([H])([H])[H])c([H])c(OC([H])([H])[H])c4Cl)c(=O)c([H])c3[H])c(N([H])[H])nc2[H])c1[H])(C([H])([H])[H])C([H])([H])[H]


 39 42  0  0  0  0  0  0  0  0999 V2000
   -5.7124   22.2399  -20.8625 C   0  0  0  0  0  0  0  0  0  0  0  0
   -6.1050   21.3671  -20.0432 N   0  0  0  0  0  0  0  0  0  0  0  0
   -6.9256   20.5984  -19.4631 C   0  0  0  0  0  0  0  0  0  0  0  0
   -8.2377   20.7621  -20.0191 C   0  0  0  0  0  0  0  0  0  0  0  0
   -8.1758   21.6780  -20.9705 N   0  0  0  0  0  0  0  0  0  0  0  0
   -7.2988   22.3949  -21.4766 C   0  0  0  0  0  0  0  0  0  0  0  0
   -7.4419   23.4535  -22.3389 N   0  0  0  0  0  0  0  0  0  0  0  0
   -7.8263   23.3858  -23.3279 H   0  0  0  0  0  0  0  0  0  0  0  0
   -7.2049   24.4628  -22.0642 H   0  0  0  0  0  0  0  0  0  0  0  0
   -4.3332   23.7290  -23.7804 N   0  0  0  0  0  0  0  0  0  0  0  0
   -4.6884   22.8890  -22.8912 N   0  0  0  0  0  0  0  0  0  0  0  0
   -5.1868   23.2286  -21.6114 C   0  0  0  0  0  0  0  0  0  0  0  0
   -5.2446   24.6222  -21.4529 C   0  0  0  0  0  0  0  0  0  0  0  0
   -4.8559   25.5084  -22.4150 C   0  0  0  0  0  0  0  0  0  0  0  0
   -4.3869   25.0761  -23.6102 C   0  0  0  0  0  0  0  0  0  0  0  0
   -4.0060   25.8365  -24.5317 O   0  0  0  0  0  0  0  0  0  0  0  0
   -4.4581   23.0934  -27.4275 C   0  0  0  0  0  0  0  0  0  0  0  0
   -3.1350   22.7039  -27.6994 C   0  0  0  0  0  0  0  0  0  0  0  0
   -2.2001   22.6250  -26.6941 C   0  0  0  0  0  0  0  0  0  0  0  0
   -2.6178   22.9465  -25.3893 C   0  0  0  0  0  0  0  0  0  0  0  0
   -1.4134   22.8119  -24.1264 Cl  0  0  0  0  0  0  0  0  0  0  0  0
   -3.8826   23.3243  -25.0938 C   0  0  0  0  0  0  0  0  0  0  0  0
   -4.8107   23.3995  -26.0990 C   0  0  0  0  0  0  0  0  0  0  0  0
   -6.5112   23.8249  -25.8232 Cl  0  0  0  0  0  0  0  0  0  0  0  0
   -5.2761   22.8583  -29.7058 C   0  0  0  0  0  0  0  0  0  0  0  0
   -5.4413   23.2017  -28.3735 O   0  0  0  0  0  0  0  0  0  0  0  0
   -0.8867   22.2538  -26.9026 O   0  0  0  0  0  0  0  0  0  0  0  0
    0.0045   22.7447  -27.8482 C   0  0  0  0  0  0  0  0  0  0  0  0
   -6.6383   19.6632  -18.4012 C   0  0  0  0  0  0  0  0  0  0  0  0
   -6.9702   18.3234  -18.4055 C   0  0  0  0  0  0  0  0  0  0  0  0
   -6.5007   17.7435  -17.2907 N   0  0  0  0  0  0  0  0  0  0  0  0
   -5.8697   18.6818  -16.5664 N   0  0  0  0  0  0  0  0  0  0  0  0
   -5.9531   19.8403  -17.2357 C   0  0  0  0  0  0  0  0  0  0  0  0
   -5.2369   18.3541  -15.3108 C   0  0  0  0  0  0  0  0  0  0  0  0
   -6.0700   18.6509  -14.1202 C   0  0  0  0  0  0  0  0  0  0  0  0
   -3.9271   19.1424  -15.1795 C   0  0  0  0  0  0  0  0  0  0  0  0
   -4.8721   16.8831  -15.3573 C   0  0  0  0  0  0  0  0  0  0  0  0
   -5.8796   16.1840  -14.7067 O   0  0  0  0  0  0  0  0  0  0  0  0
   -5.5527   15.2612  -14.4280 H   0  0  0  0  0  0  0  0  0  0  0  0
 25 26  1  0  0  0
 26 17  1  0  0  0
 17 18  2  0  0  0
 18 19  1  0  0  0
 19 27  1  0  0  0
 27 28  1  0  0  0
 19 20  2  0  0  0
 20 21  1  0  0  0
 20 22  1  0  0  0
 22 23  2  0  0  0
 23 24  1  0  0  0
 22 10  1  0  0  0
 10 11  1  0  0  0
 11 12  2  0  0  0
 12 13  1  0  0  0
 13 14  2  0  0  0
 14 15  1  0  0  0
 15 16  2  0  0  0
 12  1  1  0  0  0
  1  2  2  0  0  0
  2  3  1  0  0  0
  3  4  2  0  0  0
  4  5  1  0  0  0
  5  6  2  0  0  0
  6  7  1  0  0  0
  3 29  1  0  0  0
 29 30  1  0  0  0
 30 31  2  0  0  0
 31 32  1  0  0  0
 32 33  1  0  0  0
 32 34  1  0  0  0
 34 35  1  0  0  0
 34 36  1  0  0  0
 34 37  1  0  0  0
 37 38  1  0  0  0
 23 17  1  0  0  0
 15 10  1  0  0  0
  6  1  1  0  0  0
 33 29  2  0  0  0
  7  8  1  0  0  0
  7  9  1  0  0  0
 38 39  1  0  0  0
M  END
> <minimizedAffinity>
-6.44373

> <CNNscore>
0.0620677508

> <CNNaffinity>
6.4529390335

> <CNN_VS>
0.4005194008

> <CNNaffinity_variance>
0.1230409518

$$$$
[H]c1nc(N([H])[H])c2c(-c3sc4c(OC([H])([H])[H])c([H])c(C([H])([H])[H])c([H])c4c3[H])c(C([H])([H])OC([H])([H])C([H])([H])[H])c(C(=O)N3C([H])([H])C(F)(F)C3([H])[H])n2n1


 36 40  0  0  0  0  0  0  0  0999 V2000
   -2.8064   21.9867  -23.3344 C   0  0  0  0  0  0  0  0  0  0  0  0
   -1.4144   21.7222  -23.3751 C   0  0  0  0  0  0  0  0  0  0  0  0
   -0.9493   21.9911  -24.6154 C   0  0  0  0  0  0  0  0  0  0  0  0
    0.3102   21.8956  -25.1735 C   0  0  0  0  0  0  0  0  0  0  0  0
    1.4701   21.4884  -24.4590 N   0  0  0  0  0  0  0  0  0  0  0  0
    0.4525   22.2366  -26.4889 N   0  0  0  0  0  0  0  0  0  0  0  0
   -0.6274   22.6463  -27.1683 C   0  0  0  0  0  0  0  0  0  0  0  0
   -1.8233   22.7213  -26.5702 N   0  0  0  0  0  0  0  0  0  0  0  0
   -2.0186   22.4092  -25.3232 N   0  0  0  0  0  0  0  0  0  0  0  0
   -3.1711   22.4199  -24.5807 C   0  0  0  0  0  0  0  0  0  0  0  0
    1.9414   22.0712  -23.7308 H   0  0  0  0  0  0  0  0  0  0  0  0
    1.9307   20.5500  -24.6377 H   0  0  0  0  0  0  0  0  0  0  0  0
   -0.6269   21.2992  -22.1979 C   0  0  0  0  0  0  0  0  0  0  0  0
   -0.3250   20.0250  -21.7895 C   0  0  0  0  0  0  0  0  0  0  0  0
    0.3586   19.8746  -20.6373 C   0  0  0  0  0  0  0  0  0  0  0  0
    0.7666   18.6569  -20.0525 C   0  0  0  0  0  0  0  0  0  0  0  0
    1.4591   18.6512  -18.8843 C   0  0  0  0  0  0  0  0  0  0  0  0
    1.8915   17.3615  -18.2251 C   0  0  0  0  0  0  0  0  0  0  0  0
    1.8061   19.7883  -18.1960 C   0  0  0  0  0  0  0  0  0  0  0  0
    1.4213   21.0335  -18.7335 C   0  0  0  0  0  0  0  0  0  0  0  0
    0.6980   20.9967  -19.9620 C   0  0  0  0  0  0  0  0  0  0  0  0
    0.0580   22.2393  -20.9461 S   0  0  0  0  0  0  0  0  0  0  0  0
    1.6477   22.1874  -18.2315 O   0  0  0  0  0  0  0  0  0  0  0  0
    2.1403   22.9729  -17.2908 C   0  0  0  0  0  0  0  0  0  0  0  0
   -4.4980   22.6876  -25.1241 C   0  0  0  0  0  0  0  0  0  0  0  0
   -5.4412   21.8680  -24.7799 O   0  0  0  0  0  0  0  0  0  0  0  0
   -4.9373   23.7136  -25.9759 N   0  0  0  0  0  0  0  0  0  0  0  0
   -4.5200   24.9016  -26.6462 C   0  0  0  0  0  0  0  0  0  0  0  0
   -5.9835   25.3863  -26.7009 C   0  0  0  0  0  0  0  0  0  0  0  0
   -6.2789   26.1386  -25.6073 F   0  0  0  0  0  0  0  0  0  0  0  0
   -6.2704   25.9894  -27.9167 F   0  0  0  0  0  0  0  0  0  0  0  0
   -6.2494   23.9175  -26.6363 C   0  0  0  0  0  0  0  0  0  0  0  0
   -3.5790   21.7297  -22.1143 C   0  0  0  0  0  0  0  0  0  0  0  0
   -3.7690   22.7061  -21.2131 O   0  0  0  0  0  0  0  0  0  0  0  0
   -5.6924   22.8327  -19.7748 C   0  0  0  0  0  0  0  0  0  0  0  0
   -5.0922   23.1439  -21.1282 C   0  0  0  0  0  0  0  0  0  0  0  0
 35 36  1  0  0  0
 36 34  1  0  0  0
 34 33  1  0  0  0
 33  1  1  0  0  0
  1  2  1  0  0  0
  2 13  1  0  0  0
 13 14  2  0  0  0
 14 15  1  0  0  0
 15 16  2  0  0  0
 16 17  1  0  0  0
 17 18  1  0  0  0
 17 19  2  0  0  0
 19 20  1  0  0  0
 20 23  1  0  0  0
 23 24  1  0  0  0
 20 21  2  0  0  0
 21 22  1  0  0  0
  2  3  2  0  0  0
  3  4  1  0  0  0
  4  5  1  0  0  0
  4  6  2  0  0  0
  6  7  1  0  0  0
  7  8  2  0  0  0
  8  9  1  0  0  0
  9 10  1  0  0  0
 10 25  1  0  0  0
 25 26  2  0  0  0
 25 27  1  0  0  0
 27 28  1  0  0  0
 28 29  1  0  0  0
 29 30  1  0  0  0
 29 31  1  0  0  0
 29 32  1  0  0  0
 10  1  2  0  0  0
 32 27  1  0  0  0
 22 13  1  0  0  0
  9  3  1  0  0  0
 21 15  1  0  0  0
  5 11  1  0  0  0
  5 12  1  0  0  0
M  END
> <minimizedAffinity>
-7.16259

> <CNNscore>
0.6080510616

> <CNNaffinity>
6.9526023865

> <CNN_VS>
4.2275371552

> <CNNaffinity_variance>
0.2280221283

$$$$
[H]c1nc(N([H])[H])c2c(-c3sc4c(OC([H])([H])[H])c([H])c(C([H])([H])[H])c([H])c4c3[H])c(C([H])([H])OC([H])([H])C([H])([H])[H])c(C(=O)N3C([H])([H])C(F)(F)C3([H])[H])n2n1


 36 40  0  0  0  0  0  0  0  0999 V2000
   -2.8505   22.0708  -23.1408 C   0  0  0  0  0  0  0  0  0  0  0  0
   -1.4537   21.8313  -23.1101 C   0  0  0  0  0  0  0  0  0  0  0  0
   -0.9481   22.0048  -24.3515 C   0  0  0  0  0  0  0  0  0  0  0  0
    0.3326   21.8879  -24.8549 C   0  0  0  0  0  0  0  0  0  0  0  0
    1.4720   21.5647  -24.0684 N   0  0  0  0  0  0  0  0  0  0  0  0
    0.5173   22.1207  -26.1886 N   0  0  0  0  0  0  0  0  0  0  0  0
   -0.5437   22.4508  -26.9377 C   0  0  0  0  0  0  0  0  0  0  0  0
   -1.7618   22.5519  -26.3903 N   0  0  0  0  0  0  0  0  0  0  0  0
   -1.9975   22.3413  -25.1291 N   0  0  0  0  0  0  0  0  0  0  0  0
   -3.1764   22.3912  -24.4311 C   0  0  0  0  0  0  0  0  0  0  0  0
    1.9065   22.2155  -23.3758 H   0  0  0  0  0  0  0  0  0  0  0  0
    1.9545   20.6240  -24.1512 H   0  0  0  0  0  0  0  0  0  0  0  0
   -0.7030   21.5237  -21.8746 C   0  0  0  0  0  0  0  0  0  0  0  0
   -0.2745   22.3902  -20.9014 C   0  0  0  0  0  0  0  0  0  0  0  0
    0.4571   21.8900  -19.8856 C   0  0  0  0  0  0  0  0  0  0  0  0
    0.9842   22.6101  -18.7924 C   0  0  0  0  0  0  0  0  0  0  0  0
    1.7027   21.9750  -17.8308 C   0  0  0  0  0  0  0  0  0  0  0  0
    2.2958   22.7241  -16.6595 C   0  0  0  0  0  0  0  0  0  0  0  0
    1.9704   20.6277  -17.8413 C   0  0  0  0  0  0  0  0  0  0  0  0
    1.4703   19.8595  -18.9123 C   0  0  0  0  0  0  0  0  0  0  0  0
    0.7193   20.5629  -19.8997 C   0  0  0  0  0  0  0  0  0  0  0  0
   -0.0591   20.0381  -21.3283 S   0  0  0  0  0  0  0  0  0  0  0  0
    1.6255   18.6030  -19.0918 O   0  0  0  0  0  0  0  0  0  0  0  0
    2.3077   17.5656  -19.5423 C   0  0  0  0  0  0  0  0  0  0  0  0
   -4.4868   22.5864  -25.0415 C   0  0  0  0  0  0  0  0  0  0  0  0
   -5.3687   21.6607  -24.8289 O   0  0  0  0  0  0  0  0  0  0  0  0
   -4.9670   23.6385  -25.8375 N   0  0  0  0  0  0  0  0  0  0  0  0
   -4.6222   24.9113  -26.3813 C   0  0  0  0  0  0  0  0  0  0  0  0
   -6.1185   25.2682  -26.4979 C   0  0  0  0  0  0  0  0  0  0  0  0
   -6.5492   25.8958  -25.3710 F   0  0  0  0  0  0  0  0  0  0  0  0
   -6.3855   25.9451  -27.6789 F   0  0  0  0  0  0  0  0  0  0  0  0
   -6.2496   23.7816  -26.5682 C   0  0  0  0  0  0  0  0  0  0  0  0
   -3.6629   21.9014  -21.9313 C   0  0  0  0  0  0  0  0  0  0  0  0
   -3.9743   22.9614  -21.1689 O   0  0  0  0  0  0  0  0  0  0  0  0
   -5.1602   24.8269  -22.1162 C   0  0  0  0  0  0  0  0  0  0  0  0
   -5.2435   23.4845  -21.4236 C   0  0  0  0  0  0  0  0  0  0  0  0
 35 36  1  0  0  0
 36 34  1  0  0  0
 34 33  1  0  0  0
 33  1  1  0  0  0
  1  2  1  0  0  0
  2 13  1  0  0  0
 13 14  2  0  0  0
 14 15  1  0  0  0
 15 16  2  0  0  0
 16 17  1  0  0  0
 17 18  1  0  0  0
 17 19  2  0  0  0
 19 20  1  0  0  0
 20 23  1  0  0  0
 23 24  1  0  0  0
 20 21  2  0  0  0
 21 22  1  0  0  0
  2  3  2  0  0  0
  3  4  1  0  0  0
  4  5  1  0  0  0
  4  6  2  0  0  0
  6  7  1  0  0  0
  7  8  2  0  0  0
  8  9  1  0  0  0
  9 10  1  0  0  0
 10 25  1  0  0  0
 25 26  2  0  0  0
 25 27  1  0  0  0
 27 28  1  0  0  0
 28 29  1  0  0  0
 29 30  1  0  0  0
 29 31  1  0  0  0
 29 32  1  0  0  0
 10  1  2  0  0  0
 32 27  1  0  0  0
 22 13  1  0  0  0
  9  3  1  0  0  0
 21 15  1  0  0  0
  5 11  1  0  0  0
  5 12  1  0  0  0
M  END
> <minimizedAffinity>
-7.42032

> <CNNscore>
0.5727052689

> <CNNaffinity>
6.9004621506

> <CNN_VS>
3.9519309998

> <CNNaffinity_variance>
0.1630772054

$$$$
[H]c1nc(N([H])[H])c2c(-c3sc4c(OC([H])([H])[H])c([H])c(C([H])([H])[H])c([H])c4c3[H])c(C([H])([H])OC([H])([H])C([H])([H])[H])c(C(=O)N3C([H])([H])C(F)(F)C3([H])[H])n2n1


 36 40  0  0  0  0  0  0  0  0999 V2000
   -1.9539   21.6120  -21.6892 C   0  0  0  0  0  0  0  0  0  0  0  0
   -1.4236   22.0256  -22.9370 C   0  0  0  0  0  0  0  0  0  0  0  0
   -0.1151   21.6913  -22.9939 C   0  0  0  0  0  0  0  0  0  0  0  0
    0.8459   21.8727  -23.9689 C   0  0  0  0  0  0  0  0  0  0  0  0
    0.5959   22.4745  -25.2326 N   0  0  0  0  0  0  0  0  0  0  0  0
    2.1101   21.4237  -23.7097 N   0  0  0  0  0  0  0  0  0  0  0  0
    2.3544   20.8317  -22.5326 C   0  0  0  0  0  0  0  0  0  0  0  0
    1.3788   20.6817  -21.6275 N   0  0  0  0  0  0  0  0  0  0  0  0
    0.1590   21.0894  -21.8184 N   0  0  0  0  0  0  0  0  0  0  0  0
   -0.9337   21.0219  -20.9931 C   0  0  0  0  0  0  0  0  0  0  0  0
    0.0441   22.0215  -25.9957 H   0  0  0  0  0  0  0  0  0  0  0  0
    0.9716   23.4367  -25.4726 H   0  0  0  0  0  0  0  0  0  0  0  0
   -2.2344   22.6462  -24.0058 C   0  0  0  0  0  0  0  0  0  0  0  0
   -2.6025   22.1111  -25.2139 C   0  0  0  0  0  0  0  0  0  0  0  0
   -3.2954   22.8914  -26.0674 C   0  0  0  0  0  0  0  0  0  0  0  0
   -3.7669   22.5288  -27.3470 C   0  0  0  0  0  0  0  0  0  0  0  0
   -4.4613   23.4178  -28.1031 C   0  0  0  0  0  0  0  0  0  0  0  0
   -4.9610   23.0633  -29.4850 C   0  0  0  0  0  0  0  0  0  0  0  0
   -4.7505   24.6997  -27.7030 C   0  0  0  0  0  0  0  0  0  0  0  0
   -4.3008   25.1166  -26.4336 C   0  0  0  0  0  0  0  0  0  0  0  0
   -3.5778   24.1534  -25.6700 C   0  0  0  0  0  0  0  0  0  0  0  0
   -2.8725   24.2277  -24.1147 S   0  0  0  0  0  0  0  0  0  0  0  0
   -4.4684   26.2671  -25.9014 O   0  0  0  0  0  0  0  0  0  0  0  0
   -5.2067   27.3268  -25.6245 C   0  0  0  0  0  0  0  0  0  0  0  0
   -0.8941   20.5558  -19.6114 C   0  0  0  0  0  0  0  0  0  0  0  0
   -1.1938   21.4251  -18.6980 O   0  0  0  0  0  0  0  0  0  0  0  0
   -0.5823   19.2894  -19.0918 N   0  0  0  0  0  0  0  0  0  0  0  0
   -0.2532   17.9510  -19.4596 C   0  0  0  0  0  0  0  0  0  0  0  0
   -0.7641   17.4487  -18.0935 C   0  0  0  0  0  0  0  0  0  0  0  0
   -2.0809   17.1175  -18.1681 F   0  0  0  0  0  0  0  0  0  0  0  0
    0.0575   16.4552  -17.5815 F   0  0  0  0  0  0  0  0  0  0  0  0
   -0.4120   18.8428  -17.6879 C   0  0  0  0  0  0  0  0  0  0  0  0
   -3.3497   21.8981  -21.3405 C   0  0  0  0  0  0  0  0  0  0  0  0
   -4.3488   21.2263  -21.9340 O   0  0  0  0  0  0  0  0  0  0  0  0
   -5.9345   21.6946  -23.6805 C   0  0  0  0  0  0  0  0  0  0  0  0
   -5.4320   22.0306  -22.2936 C   0  0  0  0  0  0  0  0  0  0  0  0
 35 36  1  0  0  0
 36 34  1  0  0  0
 34 33  1  0  0  0
 33  1  1  0  0  0
  1  2  1  0  0  0
  2 13  1  0  0  0
 13 14  2  0  0  0
 14 15  1  0  0  0
 15 16  2  0  0  0
 16 17  1  0  0  0
 17 18  1  0  0  0
 17 19  2  0  0  0
 19 20  1  0  0  0
 20 23  1  0  0  0
 23 24  1  0  0  0
 20 21  2  0  0  0
 21 22  1  0  0  0
  2  3  2  0  0  0
  3  4  1  0  0  0
  4  5  1  0  0  0
  4  6  2  0  0  0
  6  7  1  0  0  0
  7  8  2  0  0  0
  8  9  1  0  0  0
  9 10  1  0  0  0
 10 25  1  0  0  0
 25 26  2  0  0  0
 25 27  1  0  0  0
 27 28  1  0  0  0
 28 29  1  0  0  0
 29 30  1  0  0  0
 29 31  1  0  0  0
 29 32  1  0  0  0
 10  1  2  0  0  0
 32 27  1  0  0  0
 22 13  1  0  0  0
  9  3  1  0  0  0
 21 15  1  0  0  0
  5 11  1  0  0  0
  5 12  1  0  0  0
M  END
> <minimizedAffinity>
-7.38921

> <CNNscore>
0.3683171272

> <CNNaffinity>
6.9754037857

> <CNN_VS>
2.5691606998

> <CNNaffinity_variance>
0.2687241435

$$$$
[H]c1nc(N([H])[H])c2c(-c3sc4c(OC([H])([H])[H])c([H])c(C([H])([H])[H])c([H])c4c3[H])c(C([H])([H])OC([H])([H])C([H])([H])[H])c(C(=O)N3C([H])([H])C(F)(F)C3([H])[H])n2n1


 36 40  0  0  0  0  0  0  0  0999 V2000
   -4.2836   24.3863  -24.9050 C   0  0  0  0  0  0  0  0  0  0  0  0
   -3.3439   23.4405  -24.4238 C   0  0  0  0  0  0  0  0  0  0  0  0
   -2.5293   23.0717  -25.4375 C   0  0  0  0  0  0  0  0  0  0  0  0
   -1.4708   22.1870  -25.5005 C   0  0  0  0  0  0  0  0  0  0  0  0
   -0.9751   21.4563  -24.3861 N   0  0  0  0  0  0  0  0  0  0  0  0
   -0.8476   22.0228  -26.7053 N   0  0  0  0  0  0  0  0  0  0  0  0
   -1.2881   22.7239  -27.7589 C   0  0  0  0  0  0  0  0  0  0  0  0
   -2.3185   23.5703  -27.6341 N   0  0  0  0  0  0  0  0  0  0  0  0
   -2.9498   23.7663  -26.5145 N   0  0  0  0  0  0  0  0  0  0  0  0
   -4.0182   24.5784  -26.2340 C   0  0  0  0  0  0  0  0  0  0  0  0
   -0.4440   21.8867  -23.5957 H   0  0  0  0  0  0  0  0  0  0  0  0
   -1.1184   20.4090  -24.3014 H   0  0  0  0  0  0  0  0  0  0  0  0
   -3.2577   23.0186  -23.0098 C   0  0  0  0  0  0  0  0  0  0  0  0
   -4.1058   22.1946  -22.3147 C   0  0  0  0  0  0  0  0  0  0  0  0
   -3.8650   21.9994  -21.0027 C   0  0  0  0  0  0  0  0  0  0  0  0
   -4.6121   21.1906  -20.1201 C   0  0  0  0  0  0  0  0  0  0  0  0
   -4.2517   21.0787  -18.8156 C   0  0  0  0  0  0  0  0  0  0  0  0
   -5.0448   20.2357  -17.8433 C   0  0  0  0  0  0  0  0  0  0  0  0
   -3.1708   21.7219  -18.2635 C   0  0  0  0  0  0  0  0  0  0  0  0
   -2.3899   22.5458  -19.0995 C   0  0  0  0  0  0  0  0  0  0  0  0
   -2.7999   22.6350  -20.4625 C   0  0  0  0  0  0  0  0  0  0  0  0
   -2.1548   23.4919  -21.7935 S   0  0  0  0  0  0  0  0  0  0  0  0
   -1.3598   23.2236  -18.7612 O   0  0  0  0  0  0  0  0  0  0  0  0
   -0.0573   23.4430  -18.7615 C   0  0  0  0  0  0  0  0  0  0  0  0
   -4.7659   25.3304  -27.2357 C   0  0  0  0  0  0  0  0  0  0  0  0
   -5.1562   26.5187  -26.8958 O   0  0  0  0  0  0  0  0  0  0  0  0
   -5.1392   24.9755  -28.5417 N   0  0  0  0  0  0  0  0  0  0  0  0
   -5.0164   23.9535  -29.5292 C   0  0  0  0  0  0  0  0  0  0  0  0
   -5.3021   24.9881  -30.6373 C   0  0  0  0  0  0  0  0  0  0  0  0
   -4.1423   25.5319  -31.0937 F   0  0  0  0  0  0  0  0  0  0  0  0
   -6.1237   24.4593  -31.6219 F   0  0  0  0  0  0  0  0  0  0  0  0
   -6.0087   25.6782  -29.5163 C   0  0  0  0  0  0  0  0  0  0  0  0
   -5.3259   24.9182  -24.0204 C   0  0  0  0  0  0  0  0  0  0  0  0
   -6.4851   24.2596  -23.8649 O   0  0  0  0  0  0  0  0  0  0  0  0
   -7.9393   24.6590  -25.7383 C   0  0  0  0  0  0  0  0  0  0  0  0
   -7.6022   24.9765  -24.2981 C   0  0  0  0  0  0  0  0  0  0  0  0
 35 36  1  0  0  0
 36 34  1  0  0  0
 34 33  1  0  0  0
 33  1  1  0  0  0
  1  2  1  0  0  0
  2 13  1  0  0  0
 13 14  2  0  0  0
 14 15  1  0  0  0
 15 16  2  0  0  0
 16 17  1  0  0  0
 17 18  1  0  0  0
 17 19  2  0  0  0
 19 20  1  0  0  0
 20 23  1  0  0  0
 23 24  1  0  0  0
 20 21  2  0  0  0
 21 22  1  0  0  0
  2  3  2  0  0  0
  3  4  1  0  0  0
  4  5  1  0  0  0
  4  6  2  0  0  0
  6  7  1  0  0  0
  7  8  2  0  0  0
  8  9  1  0  0  0
  9 10  1  0  0  0
 10 25  1  0  0  0
 25 26  2  0  0  0
 25 27  1  0  0  0
 27 28  1  0  0  0
 28 29  1  0  0  0
 29 30  1  0  0  0
 29 31  1  0  0  0
 29 32  1  0  0  0
 10  1  2  0  0  0
 32 27  1  0  0  0
 22 13  1  0  0  0
  9  3  1  0  0  0
 21 15  1  0  0  0
  5 11  1  0  0  0
  5 12  1  0  0  0
M  END
> <minimizedAffinity>
-8.50126

> <CNNscore>
0.2745901048

> <CNNaffinity>
7.0946707726

> <CNN_VS>
1.9481264353

> <CNNaffinity_variance>
0.2596584857

$$$$
[H]c1nc(N([H])[H])c2c(-c3sc4c(OC([H])([H])[H])c([H])c(C([H])([H])[H])c([H])c4c3[H])c(C([H])([H])OC([H])([H])C([H])([H])[H])c(C(=O)N3C([H])([H])C(F)(F)C3([H])[H])n2n1


 36 40  0  0  0  0  0  0  0  0999 V2000
   -1.6578   21.4619  -21.3863 C   0  0  0  0  0  0  0  0  0  0  0  0
   -1.1328   22.0186  -22.5795 C   0  0  0  0  0  0  0  0  0  0  0  0
    0.1521   21.6244  -22.7232 C   0  0  0  0  0  0  0  0  0  0  0  0
    1.0995   21.8893  -23.6924 C   0  0  0  0  0  0  0  0  0  0  0  0
    0.8566   22.6773  -24.8506 N   0  0  0  0  0  0  0  0  0  0  0  0
    2.3407   21.3392  -23.5381 N   0  0  0  0  0  0  0  0  0  0  0  0
    2.5767   20.5735  -22.4640 C   0  0  0  0  0  0  0  0  0  0  0  0
    1.6149   20.3503  -21.5592 N   0  0  0  0  0  0  0  0  0  0  0  0
    0.4172   20.8475  -21.6530 N   0  0  0  0  0  0  0  0  0  0  0  0
   -0.6584   20.7237  -20.8119 C   0  0  0  0  0  0  0  0  0  0  0  0
    0.2618   22.3683  -25.6524 H   0  0  0  0  0  0  0  0  0  0  0  0
    1.2826   23.6417  -24.9647 H   0  0  0  0  0  0  0  0  0  0  0  0
   -1.9299   22.8284  -23.5248 C   0  0  0  0  0  0  0  0  0  0  0  0
   -2.6608   23.9605  -23.2689 C   0  0  0  0  0  0  0  0  0  0  0  0
   -3.3685   24.4999  -24.2817 C   0  0  0  0  0  0  0  0  0  0  0  0
   -4.1742   25.6569  -24.2241 C   0  0  0  0  0  0  0  0  0  0  0  0
   -4.8313   26.0949  -25.3290 C   0  0  0  0  0  0  0  0  0  0  0  0
   -5.7167   27.3195  -25.2915 C   0  0  0  0  0  0  0  0  0  0  0  0
   -4.7722   25.4704  -26.5511 C   0  0  0  0  0  0  0  0  0  0  0  0
   -3.9837   24.3074  -26.6652 C   0  0  0  0  0  0  0  0  0  0  0  0
   -3.3083   23.8817  -25.4835 C   0  0  0  0  0  0  0  0  0  0  0  0
   -2.2666   22.5611  -25.1787 S   0  0  0  0  0  0  0  0  0  0  0  0
   -3.8175   23.5944  -27.7136 O   0  0  0  0  0  0  0  0  0  0  0  0
   -4.2602   22.7645  -28.6408 C   0  0  0  0  0  0  0  0  0  0  0  0
   -0.6147   20.0647  -19.5113 C   0  0  0  0  0  0  0  0  0  0  0  0
   -0.7547   20.8254  -18.4714 O   0  0  0  0  0  0  0  0  0  0  0  0
   -0.4468   18.7086  -19.1888 N   0  0  0  0  0  0  0  0  0  0  0  0
   -0.3131   17.4059  -19.7544 C   0  0  0  0  0  0  0  0  0  0  0  0
   -0.8200   16.7811  -18.4383 C   0  0  0  0  0  0  0  0  0  0  0  0
   -2.1708   16.6280  -18.4712 F   0  0  0  0  0  0  0  0  0  0  0  0
   -0.1119   15.6316  -18.1196 F   0  0  0  0  0  0  0  0  0  0  0  0
   -0.2700   18.0496  -17.8720 C   0  0  0  0  0  0  0  0  0  0  0  0
   -3.0260   21.7719  -20.9578 C   0  0  0  0  0  0  0  0  0  0  0  0
   -3.2563   22.7736  -20.0945 O   0  0  0  0  0  0  0  0  0  0  0  0
   -5.4936   22.8263  -20.9751 C   0  0  0  0  0  0  0  0  0  0  0  0
   -4.6023   22.9273  -19.7569 C   0  0  0  0  0  0  0  0  0  0  0  0
 35 36  1  0  0  0
 36 34  1  0  0  0
 34 33  1  0  0  0
 33  1  1  0  0  0
  1  2  1  0  0  0
  2 13  1  0  0  0
 13 14  2  0  0  0
 14 15  1  0  0  0
 15 16  2  0  0  0
 16 17  1  0  0  0
 17 18  1  0  0  0
 17 19  2  0  0  0
 19 20  1  0  0  0
 20 23  1  0  0  0
 23 24  1  0  0  0
 20 21  2  0  0  0
 21 22  1  0  0  0
  2  3  2  0  0  0
  3  4  1  0  0  0
  4  5  1  0  0  0
  4  6  2  0  0  0
  6  7  1  0  0  0
  7  8  2  0  0  0
  8  9  1  0  0  0
  9 10  1  0  0  0
 10 25  1  0  0  0
 25 26  2  0  0  0
 25 27  1  0  0  0
 27 28  1  0  0  0
 28 29  1  0  0  0
 29 30  1  0  0  0
 29 31  1  0  0  0
 29 32  1  0  0  0
 10  1  2  0  0  0
 32 27  1  0  0  0
 22 13  1  0  0  0
  9  3  1  0  0  0
 21 15  1  0  0  0
  5 11  1  0  0  0
  5 12  1  0  0  0
M  END
> <minimizedAffinity>
-6.76478

> <CNNscore>
0.2573543489

> <CNNaffinity>
6.7208967209

> <CNN_VS>
1.7296520472

> <CNNaffinity_variance>
0.4502067566

$$$$
[H]c1nc(N([H])[H])c2c(-c3sc4c(OC([H])([H])[H])c([H])c(C([H])([H])[H])c([H])c4c3[H])c(C([H])([H])OC([H])([H])C([H])([H])[H])c(C(=O)N3C([H])([H])C(F)(F)C3([H])[H])n2n1


 36 40  0  0  0  0  0  0  0  0999 V2000
   -2.1008   21.8982  -21.7582 C   0  0  0  0  0  0  0  0  0  0  0  0
   -1.5612   22.1911  -23.0359 C   0  0  0  0  0  0  0  0  0  0  0  0
   -0.2661   21.8053  -23.0678 C   0  0  0  0  0  0  0  0  0  0  0  0
    0.6965   21.8727  -24.0557 C   0  0  0  0  0  0  0  0  0  0  0  0
    0.4632   22.3808  -25.3630 N   0  0  0  0  0  0  0  0  0  0  0  0
    1.9445   21.3994  -23.7634 N   0  0  0  0  0  0  0  0  0  0  0  0
    2.1722   20.8945  -22.5432 C   0  0  0  0  0  0  0  0  0  0  0  0
    1.1958   20.8533  -21.6275 N   0  0  0  0  0  0  0  0  0  0  0  0
   -0.0090   21.2893  -21.8485 N   0  0  0  0  0  0  0  0  0  0  0  0
   -1.0998   21.3282  -21.0188 C   0  0  0  0  0  0  0  0  0  0  0  0
   -0.1082   21.8891  -26.0867 H   0  0  0  0  0  0  0  0  0  0  0  0
    0.8729   23.3062  -25.6796 H   0  0  0  0  0  0  0  0  0  0  0  0
   -2.3534   22.7542  -24.1495 C   0  0  0  0  0  0  0  0  0  0  0  0
   -2.6911   22.1600  -25.3388 C   0  0  0  0  0  0  0  0  0  0  0  0
   -3.3714   22.8936  -26.2425 C   0  0  0  0  0  0  0  0  0  0  0  0
   -3.8124   22.4676  -27.5134 C   0  0  0  0  0  0  0  0  0  0  0  0
   -4.4970   23.3143  -28.3250 C   0  0  0  0  0  0  0  0  0  0  0  0
   -4.9640   22.8914  -29.6990 C   0  0  0  0  0  0  0  0  0  0  0  0
   -4.8046   24.6109  -27.9916 C   0  0  0  0  0  0  0  0  0  0  0  0
   -4.3856   25.0905  -26.7339 C   0  0  0  0  0  0  0  0  0  0  0  0
   -3.6720   24.1703  -25.9107 C   0  0  0  0  0  0  0  0  0  0  0  0
   -3.0010   24.3232  -24.3460 S   0  0  0  0  0  0  0  0  0  0  0  0
   -4.5735   26.2631  -26.2598 O   0  0  0  0  0  0  0  0  0  0  0  0
   -5.1581   27.1026  -25.4242 C   0  0  0  0  0  0  0  0  0  0  0  0
   -1.0712   20.9726  -19.6044 C   0  0  0  0  0  0  0  0  0  0  0  0
   -1.8393   19.9954  -19.2370 O   0  0  0  0  0  0  0  0  0  0  0  0
   -0.3284   21.5226  -18.5476 N   0  0  0  0  0  0  0  0  0  0  0  0
    0.6759   22.4860  -18.2347 C   0  0  0  0  0  0  0  0  0  0  0  0
    1.0286   21.7039  -16.9527 C   0  0  0  0  0  0  0  0  0  0  0  0
    2.0121   20.7982  -17.2008 F   0  0  0  0  0  0  0  0  0  0  0  0
    1.2814   22.5612  -15.8918 F   0  0  0  0  0  0  0  0  0  0  0  0
   -0.3902   21.2562  -17.0899 C   0  0  0  0  0  0  0  0  0  0  0  0
   -3.4835   22.2626  -21.4314 C   0  0  0  0  0  0  0  0  0  0  0  0
   -4.5008   21.4722  -21.8085 O   0  0  0  0  0  0  0  0  0  0  0  0
   -5.9200   21.5472  -23.7487 C   0  0  0  0  0  0  0  0  0  0  0  0
   -5.5532   22.1605  -22.4153 C   0  0  0  0  0  0  0  0  0  0  0  0
 35 36  1  0  0  0
 36 34  1  0  0  0
 34 33  1  0  0  0
 33  1  1  0  0  0
  1  2  1  0  0  0
  2 13  1  0  0  0
 13 14  2  0  0  0
 14 15  1  0  0  0
 15 16  2  0  0  0
 16 17  1  0  0  0
 17 18  1  0  0  0
 17 19  2  0  0  0
 19 20  1  0  0  0
 20 23  1  0  0  0
 23 24  1  0  0  0
 20 21  2  0  0  0
 21 22  1  0  0  0
  2  3  2  0  0  0
  3  4  1  0  0  0
  4  5  1  0  0  0
  4  6  2  0  0  0
  6  7  1  0  0  0
  7  8  2  0  0  0
  8  9  1  0  0  0
  9 10  1  0  0  0
 10 25  1  0  0  0
 25 26  2  0  0  0
 25 27  1  0  0  0
 27 28  1  0  0  0
 28 29  1  0  0  0
 29 30  1  0  0  0
 29 31  1  0  0  0
 29 32  1  0  0  0
 10  1  2  0  0  0
 32 27  1  0  0  0
 22 13  1  0  0  0
  9  3  1  0  0  0
 21 15  1  0  0  0
  5 11  1  0  0  0
  5 12  1  0  0  0
M  END
> <minimizedAffinity>
-7.63737

> <CNNscore>
0.2239063382

> <CNNaffinity>
6.8215508461

> <CNN_VS>
1.5273884535

> <CNNaffinity_variance>
0.2909585536

$$$$
[H]c1nc(N([H])[H])c2c(-c3sc4c(OC([H])([H])[H])c([H])c(C([H])([H])[H])c([H])c4c3[H])c(C([H])([H])OC([H])([H])C([H])([H])[H])c(C(=O)N3C([H])([H])C(F)(F)C3([H])[H])n2n1


 36 40  0  0  0  0  0  0  0  0999 V2000
   -0.7966   21.3422  -21.0462 C   0  0  0  0  0  0  0  0  0  0  0  0
   -0.4272   21.6259  -22.3849 C   0  0  0  0  0  0  0  0  0  0  0  0
    0.8468   21.2221  -22.5870 C   0  0  0  0  0  0  0  0  0  0  0  0
    1.6709   21.2749  -23.6939 C   0  0  0  0  0  0  0  0  0  0  0  0
    1.2734   21.7845  -24.9603 N   0  0  0  0  0  0  0  0  0  0  0  0
    2.9401   20.7846  -23.5680 N   0  0  0  0  0  0  0  0  0  0  0  0
    3.3206   20.2781  -22.3871 C   0  0  0  0  0  0  0  0  0  0  0  0
    2.4736   20.2516  -21.3501 N   0  0  0  0  0  0  0  0  0  0  0  0
    1.2562   20.7041  -21.4109 N   0  0  0  0  0  0  0  0  0  0  0  0
    0.2856   20.7592  -20.4441 C   0  0  0  0  0  0  0  0  0  0  0  0
    0.6045   21.2999  -25.6004 H   0  0  0  0  0  0  0  0  0  0  0  0
    1.6501   22.7037  -25.3313 H   0  0  0  0  0  0  0  0  0  0  0  0
   -1.3522   22.1986  -23.3855 C   0  0  0  0  0  0  0  0  0  0  0  0
   -1.5197   21.8326  -24.6968 C   0  0  0  0  0  0  0  0  0  0  0  0
   -2.3831   22.5453  -25.4479 C   0  0  0  0  0  0  0  0  0  0  0  0
   -2.6970   22.3275  -26.8063 C   0  0  0  0  0  0  0  0  0  0  0  0
   -3.5954   23.1229  -27.4422 C   0  0  0  0  0  0  0  0  0  0  0  0
   -3.9359   22.9251  -28.9017 C   0  0  0  0  0  0  0  0  0  0  0  0
   -4.2489   24.1706  -26.8405 C   0  0  0  0  0  0  0  0  0  0  0  0
   -3.9712   24.4356  -25.4841 C   0  0  0  0  0  0  0  0  0  0  0  0
   -3.0243   23.5768  -24.8519 C   0  0  0  0  0  0  0  0  0  0  0  0
   -2.4117   23.5330  -23.2567 S   0  0  0  0  0  0  0  0  0  0  0  0
   -4.4743   25.3671  -24.7669 O   0  0  0  0  0  0  0  0  0  0  0  0
   -5.4945   25.9556  -24.1690 C   0  0  0  0  0  0  0  0  0  0  0  0
    0.4965   20.4050  -19.0448 C   0  0  0  0  0  0  0  0  0  0  0  0
    0.3270   19.1591  -18.7307 O   0  0  0  0  0  0  0  0  0  0  0  0
    0.8666   21.2074  -17.9538 N   0  0  0  0  0  0  0  0  0  0  0  0
    1.2505   22.5307  -17.5848 C   0  0  0  0  0  0  0  0  0  0  0  0
    1.9555   21.9774  -16.3293 C   0  0  0  0  0  0  0  0  0  0  0  0
    3.2601   21.7017  -16.5963 F   0  0  0  0  0  0  0  0  0  0  0  0
    1.7475   22.7982  -15.2305 F   0  0  0  0  0  0  0  0  0  0  0  0
    0.9547   20.8829  -16.5094 C   0  0  0  0  0  0  0  0  0  0  0  0
   -2.1188   21.7261  -20.5401 C   0  0  0  0  0  0  0  0  0  0  0  0
   -2.8547   20.8537  -19.8336 O   0  0  0  0  0  0  0  0  0  0  0  0
   -2.5700   22.5954  -18.1999 C   0  0  0  0  0  0  0  0  0  0  0  0
   -2.9240   21.1498  -18.4709 C   0  0  0  0  0  0  0  0  0  0  0  0
 35 36  1  0  0  0
 36 34  1  0  0  0
 34 33  1  0  0  0
 33  1  1  0  0  0
  1  2  1  0  0  0
  2 13  1  0  0  0
 13 14  2  0  0  0
 14 15  1  0  0  0
 15 16  2  0  0  0
 16 17  1  0  0  0
 17 18  1  0  0  0
 17 19  2  0  0  0
 19 20  1  0  0  0
 20 23  1  0  0  0
 23 24  1  0  0  0
 20 21  2  0  0  0
 21 22  1  0  0  0
  2  3  2  0  0  0
  3  4  1  0  0  0
  4  5  1  0  0  0
  4  6  2  0  0  0
  6  7  1  0  0  0
  7  8  2  0  0  0
  8  9  1  0  0  0
  9 10  1  0  0  0
 10 25  1  0  0  0
 25 26  2  0  0  0
 25 27  1  0  0  0
 27 28  1  0  0  0
 28 29  1  0  0  0
 29 30  1  0  0  0
 29 31  1  0  0  0
 29 32  1  0  0  0
 10  1  2  0  0  0
 32 27  1  0  0  0
 22 13  1  0  0  0
  9  3  1  0  0  0
 21 15  1  0  0  0
  5 11  1  0  0  0
  5 12  1  0  0  0
M  END
> <minimizedAffinity>
-7.53960

> <CNNscore>
0.2048488259

> <CNNaffinity>
6.2122120857

> <CNN_VS>
1.2725644112

> <CNNaffinity_variance>
0.2310588062

$$$$
[H]c1nc(N([H])[H])c2c(-c3sc4c(OC([H])([H])[H])c([H])c(C([H])([H])[H])c([H])c4c3[H])c(C([H])([H])OC([H])([H])C([H])([H])[H])c(C(=O)N3C([H])([H])C(F)(F)C3([H])[H])n2n1


 36 40  0  0  0  0  0  0  0  0999 V2000
   -5.4018   23.3012  -25.7460 C   0  0  0  0  0  0  0  0  0  0  0  0
   -4.4407   22.9215  -24.7758 C   0  0  0  0  0  0  0  0  0  0  0  0
   -3.2382   22.7799  -25.3766 C   0  0  0  0  0  0  0  0  0  0  0  0
   -1.9961   22.4224  -24.8904 C   0  0  0  0  0  0  0  0  0  0  0  0
   -1.7249   22.1447  -23.5226 N   0  0  0  0  0  0  0  0  0  0  0  0
   -0.9592   22.3546  -25.7778 N   0  0  0  0  0  0  0  0  0  0  0  0
   -1.1947   22.6382  -27.0661 C   0  0  0  0  0  0  0  0  0  0  0  0
   -2.4221   22.9825  -27.4768 N   0  0  0  0  0  0  0  0  0  0  0  0
   -3.4456   23.0624  -26.6790 N   0  0  0  0  0  0  0  0  0  0  0  0
   -4.7512   23.3835  -26.9475 C   0  0  0  0  0  0  0  0  0  0  0  0
   -1.7030   22.8722  -22.7727 H   0  0  0  0  0  0  0  0  0  0  0  0
   -1.5203   21.1600  -23.1866 H   0  0  0  0  0  0  0  0  0  0  0  0
   -4.7396   22.7937  -23.3338 C   0  0  0  0  0  0  0  0  0  0  0  0
   -5.0629   23.7836  -22.4411 C   0  0  0  0  0  0  0  0  0  0  0  0
   -5.2318   23.4401  -21.1484 C   0  0  0  0  0  0  0  0  0  0  0  0
   -5.5687   24.3035  -20.0843 C   0  0  0  0  0  0  0  0  0  0  0  0
   -5.7142   23.8196  -18.8237 C   0  0  0  0  0  0  0  0  0  0  0  0
   -6.0549   24.7241  -17.6616 C   0  0  0  0  0  0  0  0  0  0  0  0
   -5.5490   22.4976  -18.4888 C   0  0  0  0  0  0  0  0  0  0  0  0
   -5.2089   21.5905  -19.5129 C   0  0  0  0  0  0  0  0  0  0  0  0
   -5.0677   22.1374  -20.8223 C   0  0  0  0  0  0  0  0  0  0  0  0
   -4.6814   21.4168  -22.3235 S   0  0  0  0  0  0  0  0  0  0  0  0
   -5.0087   20.3338  -19.3877 O   0  0  0  0  0  0  0  0  0  0  0  0
   -4.8506   19.2461  -18.6553 C   0  0  0  0  0  0  0  0  0  0  0  0
   -5.2889   23.5917  -28.2874 C   0  0  0  0  0  0  0  0  0  0  0  0
   -6.3807   22.9569  -28.5786 O   0  0  0  0  0  0  0  0  0  0  0  0
   -4.8122   24.3887  -29.3403 N   0  0  0  0  0  0  0  0  0  0  0  0
   -3.8010   25.3298  -29.6959 C   0  0  0  0  0  0  0  0  0  0  0  0
   -4.7077   25.8834  -30.8144 C   0  0  0  0  0  0  0  0  0  0  0  0
   -5.4653   26.9126  -30.3499 F   0  0  0  0  0  0  0  0  0  0  0  0
   -3.9794   26.1680  -31.9602 F   0  0  0  0  0  0  0  0  0  0  0  0
   -5.2771   24.5039  -30.7439 C   0  0  0  0  0  0  0  0  0  0  0  0
   -6.8099   23.4739  -25.3730 C   0  0  0  0  0  0  0  0  0  0  0  0
   -7.4244   24.6511  -25.5687 O   0  0  0  0  0  0  0  0  0  0  0  0
   -6.1710   26.5576  -24.8082 C   0  0  0  0  0  0  0  0  0  0  0  0
   -7.2628   25.5524  -24.5146 C   0  0  0  0  0  0  0  0  0  0  0  0
 35 36  1  0  0  0
 36 34  1  0  0  0
 34 33  1  0  0  0
 33  1  1  0  0  0
  1  2  1  0  0  0
  2 13  1  0  0  0
 13 14  2  0  0  0
 14 15  1  0  0  0
 15 16  2  0  0  0
 16 17  1  0  0  0
 17 18  1  0  0  0
 17 19  2  0  0  0
 19 20  1  0  0  0
 20 23  1  0  0  0
 23 24  1  0  0  0
 20 21  2  0  0  0
 21 22  1  0  0  0
  2  3  2  0  0  0
  3  4  1  0  0  0
  4  5  1  0  0  0
  4  6  2  0  0  0
  6  7  1  0  0  0
  7  8  2  0  0  0
  8  9  1  0  0  0
  9 10  1  0  0  0
 10 25  1  0  0  0
 25 26  2  0  0  0
 25 27  1  0  0  0
 27 28  1  0  0  0
 28 29  1  0  0  0
 29 30  1  0  0  0
 29 31  1  0  0  0
 29 32  1  0  0  0
 10  1  2  0  0  0
 32 27  1  0  0  0
 22 13  1  0  0  0
  9  3  1  0  0  0
 21 15  1  0  0  0
  5 11  1  0  0  0
  5 12  1  0  0  0
M  END
> <minimizedAffinity>
-7.86628

> <CNNscore>
0.1501207203

> <CNNaffinity>
6.9301366806

> <CNN_VS>
1.0403571129

> <CNNaffinity_variance>
0.3545907140

$$$$
[H]c1nc(N([H])[H])c2c(-c3sc4c(OC([H])([H])[H])c([H])c(C([H])([H])[H])c([H])c4c3[H])c(C([H])([H])OC([H])([H])C([H])([H])[H])c(C(=O)N3C([H])([H])C(F)(F)C3([H])[H])n2n1


 36 40  0  0  0  0  0  0  0  0999 V2000
   -1.6506   21.5518  -21.2290 C   0  0  0  0  0  0  0  0  0  0  0  0
   -1.1666   22.0023  -22.4828 C   0  0  0  0  0  0  0  0  0  0  0  0
    0.0979   21.5567  -22.6545 C   0  0  0  0  0  0  0  0  0  0  0  0
    1.0057   21.7188  -23.6825 C   0  0  0  0  0  0  0  0  0  0  0  0
    0.7314   22.4277  -24.8841 N   0  0  0  0  0  0  0  0  0  0  0  0
    2.2361   21.1410  -23.5438 N   0  0  0  0  0  0  0  0  0  0  0  0
    2.5001   20.4485  -22.4274 C   0  0  0  0  0  0  0  0  0  0  0  0
    1.5762   20.3237  -21.4660 N   0  0  0  0  0  0  0  0  0  0  0  0
    0.3905   20.8518  -21.5425 N   0  0  0  0  0  0  0  0  0  0  0  0
   -0.6472   20.8251  -20.6469 C   0  0  0  0  0  0  0  0  0  0  0  0
    0.0904   22.0806  -25.6329 H   0  0  0  0  0  0  0  0  0  0  0  0
    1.1797   23.3667  -25.0887 H   0  0  0  0  0  0  0  0  0  0  0  0
   -1.9835   22.7667  -23.4489 C   0  0  0  0  0  0  0  0  0  0  0  0
   -2.5865   23.9864  -23.2755 C   0  0  0  0  0  0  0  0  0  0  0  0
   -3.3444   24.4668  -24.2817 C   0  0  0  0  0  0  0  0  0  0  0  0
   -4.0395   25.6947  -24.3009 C   0  0  0  0  0  0  0  0  0  0  0  0
   -4.7650   26.0591  -25.3895 C   0  0  0  0  0  0  0  0  0  0  0  0
   -5.5354   27.3590  -25.4300 C   0  0  0  0  0  0  0  0  0  0  0  0
   -4.8823   25.2905  -26.5220 C   0  0  0  0  0  0  0  0  0  0  0  0
   -4.2104   24.0516  -26.5564 C   0  0  0  0  0  0  0  0  0  0  0  0
   -3.4580   23.7067  -25.3951 C   0  0  0  0  0  0  0  0  0  0  0  0
   -2.5063   22.3377  -25.0181 S   0  0  0  0  0  0  0  0  0  0  0  0
   -4.2115   23.2060  -27.5155 O   0  0  0  0  0  0  0  0  0  0  0  0
   -4.4404   22.8691  -28.7720 C   0  0  0  0  0  0  0  0  0  0  0  0
   -0.5613   20.2617  -19.3040 C   0  0  0  0  0  0  0  0  0  0  0  0
   -0.7663   18.9865  -19.1966 O   0  0  0  0  0  0  0  0  0  0  0  0
   -0.2820   20.8847  -18.0773 N   0  0  0  0  0  0  0  0  0  0  0  0
    0.0777   22.1301  -17.4820 C   0  0  0  0  0  0  0  0  0  0  0  0
    0.6670   21.3815  -16.2687 C   0  0  0  0  0  0  0  0  0  0  0  0
    1.9878   21.1227  -16.4625 F   0  0  0  0  0  0  0  0  0  0  0  0
    0.3699   22.0329  -15.0807 F   0  0  0  0  0  0  0  0  0  0  0  0
   -0.3221   20.3463  -16.6959 C   0  0  0  0  0  0  0  0  0  0  0  0
   -2.9872   21.9370  -20.7635 C   0  0  0  0  0  0  0  0  0  0  0  0
   -4.0486   21.1594  -21.0292 O   0  0  0  0  0  0  0  0  0  0  0  0
   -5.7075   22.3446  -22.3049 C   0  0  0  0  0  0  0  0  0  0  0  0
   -5.2710   21.8297  -20.9510 C   0  0  0  0  0  0  0  0  0  0  0  0
 35 36  1  0  0  0
 36 34  1  0  0  0
 34 33  1  0  0  0
 33  1  1  0  0  0
  1  2  1  0  0  0
  2 13  1  0  0  0
 13 14  2  0  0  0
 14 15  1  0  0  0
 15 16  2  0  0  0
 16 17  1  0  0  0
 17 18  1  0  0  0
 17 19  2  0  0  0
 19 20  1  0  0  0
 20 23  1  0  0  0
 23 24  1  0  0  0
 20 21  2  0  0  0
 21 22  1  0  0  0
  2  3  2  0  0  0
  3  4  1  0  0  0
  4  5  1  0  0  0
  4  6  2  0  0  0
  6  7  1  0  0  0
  7  8  2  0  0  0
  8  9  1  0  0  0
  9 10  1  0  0  0
 10 25  1  0  0  0
 25 26  2  0  0  0
 25 27  1  0  0  0
 27 28  1  0  0  0
 28 29  1  0  0  0
 29 30  1  0  0  0
 29 31  1  0  0  0
 29 32  1  0  0  0
 10  1  2  0  0  0
 32 27  1  0  0  0
 22 13  1  0  0  0
  9  3  1  0  0  0
 21 15  1  0  0  0
  5 11  1  0  0  0
  5 12  1  0  0  0
M  END
> <minimizedAffinity>
-6.86832

> <CNNscore>
0.1431508958

> <CNNaffinity>
6.5650091171

> <CNN_VS>
0.9397869110

> <CNNaffinity_variance>
0.2372822016

$$$$
[H]c1nc(N([H])C(=O)c2c([H])c([H])c(C3([H])C([H])([H])C([H])([H])N(C([H])(C([H])([H])[H])C([H])([H])[H])C([H])([H])C3([H])[H])c([H])c2[H])c([H])c(Oc2c(OC([H])([H])C([H])([H])C([H])([H])OC([H])([H])[H])c([H])c3c(c2[H])c([H])c([H])n3C(=O)N([H])C([H])([H])[H])c1[H]


 46 50  0  0  0  0  0  0  0  0999 V2000
   -2.2537   22.6566  -27.2940 C   0  0  0  0  0  0  0  0  0  0  0  0
   -1.5876   23.1944  -28.3828 C   0  0  0  0  0  0  0  0  0  0  0  0
   -0.2159   23.2021  -28.3498 C   0  0  0  0  0  0  0  0  0  0  0  0
    0.4634   22.7239  -27.3358 N   0  0  0  0  0  0  0  0  0  0  0  0
   -0.1184   22.1907  -26.2505 C   0  0  0  0  0  0  0  0  0  0  0  0
   -1.4871   22.1557  -26.2284 C   0  0  0  0  0  0  0  0  0  0  0  0
    0.6894   21.6971  -25.2053 N   0  0  0  0  0  0  0  0  0  0  0  0
    0.5279   21.8023  -23.8207 C   0  0  0  0  0  0  0  0  0  0  0  0
   -0.4031   22.3932  -23.2761 O   0  0  0  0  0  0  0  0  0  0  0  0
    1.5671   21.1416  -25.5458 H   0  0  0  0  0  0  0  0  0  0  0  0
    1.5220   21.1731  -22.9201 C   0  0  0  0  0  0  0  0  0  0  0  0
    2.7644   20.8861  -23.3877 C   0  0  0  0  0  0  0  0  0  0  0  0
    3.6892   20.2834  -22.5436 C   0  0  0  0  0  0  0  0  0  0  0  0
    3.4150   19.9558  -21.2388 C   0  0  0  0  0  0  0  0  0  0  0  0
    2.1336   20.2605  -20.7857 C   0  0  0  0  0  0  0  0  0  0  0  0
    1.2058   20.8596  -21.6185 C   0  0  0  0  0  0  0  0  0  0  0  0
    4.4380   19.3397  -20.4124 C   0  0  0  0  0  0  0  0  0  0  0  0
    5.3918   20.3789  -19.7936 C   0  0  0  0  0  0  0  0  0  0  0  0
    6.2584   19.6899  -18.7589 C   0  0  0  0  0  0  0  0  0  0  0  0
    6.0325   18.2914  -18.8507 N   0  0  0  0  0  0  0  0  0  0  0  0
    6.2770   17.7207  -20.1233 C   0  0  0  0  0  0  0  0  0  0  0  0
    5.2453   18.2652  -21.1019 C   0  0  0  0  0  0  0  0  0  0  0  0
    6.2365   17.5046  -17.7010 C   0  0  0  0  0  0  0  0  0  0  0  0
    4.8579   17.0431  -17.2103 C   0  0  0  0  0  0  0  0  0  0  0  0
    6.9768   16.2409  -18.0853 C   0  0  0  0  0  0  0  0  0  0  0  0
   -3.6121   22.6446  -27.3266 O   0  0  0  0  0  0  0  0  0  0  0  0
   -8.7966   26.3288  -20.9211 C   0  0  0  0  0  0  0  0  0  0  0  0
   -8.0877   25.1201  -21.3329 N   0  0  0  0  0  0  0  0  0  0  0  0
   -7.3760   25.1327  -22.5738 C   0  0  0  0  0  0  0  0  0  0  0  0
   -7.3875   26.2023  -23.2784 O   0  0  0  0  0  0  0  0  0  0  0  0
   -6.6682   23.9930  -23.0272 N   0  0  0  0  0  0  0  0  0  0  0  0
   -6.6189   22.8462  -22.3349 C   0  0  0  0  0  0  0  0  0  0  0  0
   -5.8641   21.9093  -22.9894 C   0  0  0  0  0  0  0  0  0  0  0  0
   -5.4252   22.5167  -24.1481 C   0  0  0  0  0  0  0  0  0  0  0  0
   -4.6538   22.1374  -25.2062 C   0  0  0  0  0  0  0  0  0  0  0  0
   -4.3837   22.9850  -26.2402 C   0  0  0  0  0  0  0  0  0  0  0  0
   -4.8949   24.3098  -26.2650 C   0  0  0  0  0  0  0  0  0  0  0  0
   -5.6912   24.6781  -25.1577 C   0  0  0  0  0  0  0  0  0  0  0  0
   -5.9420   23.8182  -24.1490 C   0  0  0  0  0  0  0  0  0  0  0  0
   -8.1065   24.2872  -20.7407 H   0  0  0  0  0  0  0  0  0  0  0  0
   -4.6289   25.1004  -27.2453 O   0  0  0  0  0  0  0  0  0  0  0  0
   -4.3628   25.8785  -28.2184 C   0  0  0  0  0  0  0  0  0  0  0  0
   -4.2501   25.1527  -29.5699 C   0  0  0  0  0  0  0  0  0  0  0  0
   -5.5179   24.4011  -29.8351 C   0  0  0  0  0  0  0  0  0  0  0  0
   -5.8597   24.4768  -31.1650 O   0  0  0  0  0  0  0  0  0  0  0  0
   -5.6691   25.7226  -31.6894 C   0  0  0  0  0  0  0  0  0  0  0  0
 27 28  1  0  0  0
 28 29  1  0  0  0
 29 30  2  0  0  0
 29 31  1  0  0  0
 31 32  1  0  0  0
 32 33  2  0  0  0
 33 34  1  0  0  0
 34 35  2  0  0  0
 35 36  1  0  0  0
 36 26  1  0  0  0
 26  1  1  0  0  0
  1  2  2  0  0  0
  2  3  1  0  0  0
  3  4  2  0  0  0
  4  5  1  0  0  0
  5  7  1  0  0  0
  7  8  1  0  0  0
  8  9  2  0  0  0
  8 11  1  0  0  0
 11 12  2  0  0  0
 12 13  1  0  0  0
 13 14  2  0  0  0
 14 15  1  0  0  0
 15 16  2  0  0  0
 14 17  1  0  0  0
 17 18  1  0  0  0
 18 19  1  0  0  0
 19 20  1  0  0  0
 20 21  1  0  0  0
 21 22  1  0  0  0
 20 23  1  0  0  0
 23 24  1  0  0  0
 23 25  1  0  0  0
  5  6  2  0  0  0
 36 37  2  0  0  0
 37 41  1  0  0  0
 41 42  1  0  0  0
 42 43  1  0  0  0
 43 44  1  0  0  0
 44 45  1  0  0  0
 45 46  1  0  0  0
 37 38  1  0  0  0
 38 39  2  0  0  0
 39 31  1  0  0  0
 39 34  1  0  0  0
  6  1  1  0  0  0
 16 11  1  0  0  0
 22 17  1  0  0  0
 28 40  1  0  0  0
  7 10  1  0  0  0
M  END
> <minimizedAffinity>
-8.55023

> <CNNscore>
0.8842886686

> <CNNaffinity>
7.6741089821

> <CNN_VS>
6.7861275673

> <CNNaffinity_variance>
0.0527967103

$$$$
[H]c1nc(N([H])C(=O)c2c([H])c([H])c(C3([H])C([H])([H])C([H])([H])N(C([H])(C([H])([H])[H])C([H])([H])[H])C([H])([H])C3([H])[H])c([H])c2[H])c([H])c(Oc2c(OC([H])([H])C([H])([H])C([H])([H])OC([H])([H])[H])c([H])c3c(c2[H])c([H])c([H])n3C(=O)N([H])C([H])([H])[H])c1[H]


 46 50  0  0  0  0  0  0  0  0999 V2000
   -1.8284   22.3826  -26.3969 C   0  0  0  0  0  0  0  0  0  0  0  0
   -0.8964   22.5170  -27.4126 C   0  0  0  0  0  0  0  0  0  0  0  0
    0.4303   22.4204  -27.0764 C   0  0  0  0  0  0  0  0  0  0  0  0
    0.8276   22.2091  -25.8452 N   0  0  0  0  0  0  0  0  0  0  0  0
   -0.0212   22.0710  -24.8151 C   0  0  0  0  0  0  0  0  0  0  0  0
   -1.3595   22.1576  -25.0917 C   0  0  0  0  0  0  0  0  0  0  0  0
    0.4927   21.8437  -23.5217 N   0  0  0  0  0  0  0  0  0  0  0  0
    1.6359   21.1462  -23.1206 C   0  0  0  0  0  0  0  0  0  0  0  0
    2.4069   20.5797  -23.8934 O   0  0  0  0  0  0  0  0  0  0  0  0
   -0.0992   22.2964  -22.7219 H   0  0  0  0  0  0  0  0  0  0  0  0
    1.9727   21.0637  -21.6801 C   0  0  0  0  0  0  0  0  0  0  0  0
    0.9807   20.8978  -20.7673 C   0  0  0  0  0  0  0  0  0  0  0  0
    1.2998   20.8349  -19.4162 C   0  0  0  0  0  0  0  0  0  0  0  0
    2.5844   20.9313  -18.9414 C   0  0  0  0  0  0  0  0  0  0  0  0
    3.5816   21.1016  -19.8989 C   0  0  0  0  0  0  0  0  0  0  0  0
    3.2740   21.1664  -21.2460 C   0  0  0  0  0  0  0  0  0  0  0  0
    2.8420   20.8426  -17.5149 C   0  0  0  0  0  0  0  0  0  0  0  0
    2.6622   19.4101  -16.9779 C   0  0  0  0  0  0  0  0  0  0  0  0
    3.1884   19.3522  -15.5580 C   0  0  0  0  0  0  0  0  0  0  0  0
    3.4863   20.6760  -15.1407 N   0  0  0  0  0  0  0  0  0  0  0  0
    2.4056   21.5887  -15.2042 C   0  0  0  0  0  0  0  0  0  0  0  0
    2.0395   21.8010  -16.6669 C   0  0  0  0  0  0  0  0  0  0  0  0
    4.4755   20.8594  -14.1556 C   0  0  0  0  0  0  0  0  0  0  0  0
    5.8148   21.0489  -14.8801 C   0  0  0  0  0  0  0  0  0  0  0  0
    4.2187   22.1610  -13.4259 C   0  0  0  0  0  0  0  0  0  0  0  0
   -3.1430   22.4741  -26.7287 O   0  0  0  0  0  0  0  0  0  0  0  0
  -10.2971   25.8278  -22.3637 C   0  0  0  0  0  0  0  0  0  0  0  0
   -8.9431   25.3030  -22.2078 N   0  0  0  0  0  0  0  0  0  0  0  0
   -8.2346   24.8780  -23.3756 C   0  0  0  0  0  0  0  0  0  0  0  0
   -8.8135   24.9720  -24.5144 O   0  0  0  0  0  0  0  0  0  0  0  0
   -6.9188   24.3615  -23.2901 N   0  0  0  0  0  0  0  0  0  0  0  0
   -6.2610   24.2391  -22.1286 C   0  0  0  0  0  0  0  0  0  0  0  0
   -5.0079   23.7226  -22.3257 C   0  0  0  0  0  0  0  0  0  0  0  0
   -4.8908   23.5178  -23.6853 C   0  0  0  0  0  0  0  0  0  0  0  0
   -3.9171   23.0386  -24.5105 C   0  0  0  0  0  0  0  0  0  0  0  0
   -4.0964   22.9512  -25.8599 C   0  0  0  0  0  0  0  0  0  0  0  0
   -5.3111   23.3569  -26.4736 C   0  0  0  0  0  0  0  0  0  0  0  0
   -6.3038   23.8491  -25.5971 C   0  0  0  0  0  0  0  0  0  0  0  0
   -6.0986   23.9239  -24.2659 C   0  0  0  0  0  0  0  0  0  0  0  0
   -8.5196   25.2434  -21.2794 H   0  0  0  0  0  0  0  0  0  0  0  0
   -5.4653   23.2724  -27.7488 O   0  0  0  0  0  0  0  0  0  0  0  0
   -5.6131   23.1921  -29.0117 C   0  0  0  0  0  0  0  0  0  0  0  0
   -4.9543   24.3502  -29.7802 C   0  0  0  0  0  0  0  0  0  0  0  0
   -5.4193   25.6528  -29.2063 C   0  0  0  0  0  0  0  0  0  0  0  0
   -5.4412   26.6307  -30.1729 O   0  0  0  0  0  0  0  0  0  0  0  0
   -5.4135   26.1224  -31.4395 C   0  0  0  0  0  0  0  0  0  0  0  0
 27 28  1  0  0  0
 28 29  1  0  0  0
 29 30  2  0  0  0
 29 31  1  0  0  0
 31 32  1  0  0  0
 32 33  2  0  0  0
 33 34  1  0  0  0
 34 35  2  0  0  0
 35 36  1  0  0  0
 36 26  1  0  0  0
 26  1  1  0  0  0
  1  2  2  0  0  0
  2  3  1  0  0  0
  3  4  2  0  0  0
  4  5  1  0  0  0
  5  7  1  0  0  0
  7  8  1  0  0  0
  8  9  2  0  0  0
  8 11  1  0  0  0
 11 12  2  0  0  0
 12 13  1  0  0  0
 13 14  2  0  0  0
 14 15  1  0  0  0
 15 16  2  0  0  0
 14 17  1  0  0  0
 17 18  1  0  0  0
 18 19  1  0  0  0
 19 20  1  0  0  0
 20 21  1  0  0  0
 21 22  1  0  0  0
 20 23  1  0  0  0
 23 24  1  0  0  0
 23 25  1  0  0  0
  5  6  2  0  0  0
 36 37  2  0  0  0
 37 41  1  0  0  0
 41 42  1  0  0  0
 42 43  1  0  0  0
 43 44  1  0  0  0
 44 45  1  0  0  0
 45 46  1  0  0  0
 37 38  1  0  0  0
 38 39  2  0  0  0
 39 31  1  0  0  0
 39 34  1  0  0  0
  6  1  1  0  0  0
 16 11  1  0  0  0
 22 17  1  0  0  0
 28 40  1  0  0  0
  7 10  1  0  0  0
M  END
> <minimizedAffinity>
-7.99681

> <CNNscore>
0.3576862514

> <CNNaffinity>
7.1948423386

> <CNN_VS>
2.5734961033

> <CNNaffinity_variance>
0.1104555279

$$$$
[H]c1nc(N([H])C(=O)c2c([H])c([H])c(C3([H])C([H])([H])C([H])([H])N(C([H])(C([H])([H])[H])C([H])([H])[H])C([H])([H])C3([H])[H])c([H])c2[H])c([H])c(Oc2c(OC([H])([H])C([H])([H])C([H])([H])OC([H])([H])[H])c([H])c3c(c2[H])c([H])c([H])n3C(=O)N([H])C([H])([H])[H])c1[H]


 46 50  0  0  0  0  0  0  0  0999 V2000
    0.9162   20.5840  -21.5683 C   0  0  0  0  0  0  0  0  0  0  0  0
    2.2354   20.1679  -21.6388 C   0  0  0  0  0  0  0  0  0  0  0  0
    2.5364   18.9202  -21.1535 C   0  0  0  0  0  0  0  0  0  0  0  0
    1.6263   18.1312  -20.6365 N   0  0  0  0  0  0  0  0  0  0  0  0
    0.3323   18.4721  -20.5367 C   0  0  0  0  0  0  0  0  0  0  0  0
   -0.0269   19.7072  -21.0062 C   0  0  0  0  0  0  0  0  0  0  0  0
   -0.5809   17.5602  -19.9682 N   0  0  0  0  0  0  0  0  0  0  0  0
   -0.4979   16.1708  -19.8387 C   0  0  0  0  0  0  0  0  0  0  0  0
    0.4465   15.4940  -20.2419 O   0  0  0  0  0  0  0  0  0  0  0  0
   -1.4820   18.0276  -19.5625 H   0  0  0  0  0  0  0  0  0  0  0  0
   -1.5994   15.4322  -19.1780 C   0  0  0  0  0  0  0  0  0  0  0  0
   -2.6348   14.9643  -19.9220 C   0  0  0  0  0  0  0  0  0  0  0  0
   -3.6726   14.2842  -19.2962 C   0  0  0  0  0  0  0  0  0  0  0  0
   -3.7123   14.0523  -17.9436 C   0  0  0  0  0  0  0  0  0  0  0  0
   -2.6384   14.5435  -17.2049 C   0  0  0  0  0  0  0  0  0  0  0  0
   -1.6012   15.2225  -17.8184 C   0  0  0  0  0  0  0  0  0  0  0  0
   -4.8243   13.3211  -17.3625 C   0  0  0  0  0  0  0  0  0  0  0  0
   -4.3569   12.1038  -16.5425 C   0  0  0  0  0  0  0  0  0  0  0  0
   -5.5393   11.5521  -15.7718 C   0  0  0  0  0  0  0  0  0  0  0  0
   -6.7099   12.2207  -16.2163 N   0  0  0  0  0  0  0  0  0  0  0  0
   -6.9700   12.1279  -17.6051 C   0  0  0  0  0  0  0  0  0  0  0  0
   -5.8798   12.8849  -18.3512 C   0  0  0  0  0  0  0  0  0  0  0  0
   -7.7953   12.3309  -15.3262 C   0  0  0  0  0  0  0  0  0  0  0  0
   -7.4544   13.4399  -14.3221 C   0  0  0  0  0  0  0  0  0  0  0  0
   -9.0122   12.8236  -16.0805 C   0  0  0  0  0  0  0  0  0  0  0  0
    0.6156   21.8178  -22.0520 O   0  0  0  0  0  0  0  0  0  0  0  0
   -4.7078   23.2590  -29.1982 C   0  0  0  0  0  0  0  0  0  0  0  0
   -3.3408   22.9801  -28.7660 N   0  0  0  0  0  0  0  0  0  0  0  0
   -3.0779   22.8508  -27.3658 C   0  0  0  0  0  0  0  0  0  0  0  0
   -4.0500   22.9854  -26.5427 O   0  0  0  0  0  0  0  0  0  0  0  0
   -1.7741   22.5794  -26.8844 N   0  0  0  0  0  0  0  0  0  0  0  0
   -0.7176   22.4280  -27.6954 C   0  0  0  0  0  0  0  0  0  0  0  0
    0.4191   22.1658  -26.9778 C   0  0  0  0  0  0  0  0  0  0  0  0
    0.0374   22.1550  -25.6518 C   0  0  0  0  0  0  0  0  0  0  0  0
    0.6758   21.9576  -24.4635 C   0  0  0  0  0  0  0  0  0  0  0  0
    0.0122   22.0097  -23.2729 C   0  0  0  0  0  0  0  0  0  0  0  0
   -1.3820   22.2730  -23.2128 C   0  0  0  0  0  0  0  0  0  0  0  0
   -2.0200   22.4742  -24.4572 C   0  0  0  0  0  0  0  0  0  0  0  0
   -1.3378   22.4170  -25.6196 C   0  0  0  0  0  0  0  0  0  0  0  0
   -2.5940   22.8823  -29.4572 H   0  0  0  0  0  0  0  0  0  0  0  0
   -1.9964   22.3155  -22.0824 O   0  0  0  0  0  0  0  0  0  0  0  0
   -2.6018   22.3525  -20.9620 C   0  0  0  0  0  0  0  0  0  0  0  0
   -4.0176   22.9471  -21.0504 C   0  0  0  0  0  0  0  0  0  0  0  0
   -4.8817   22.0466  -21.8780 C   0  0  0  0  0  0  0  0  0  0  0  0
   -5.8235   22.7739  -22.5673 O   0  0  0  0  0  0  0  0  0  0  0  0
   -5.3092   23.9070  -23.1285 C   0  0  0  0  0  0  0  0  0  0  0  0
 27 28  1  0  0  0
 28 29  1  0  0  0
 29 30  2  0  0  0
 29 31  1  0  0  0
 31 32  1  0  0  0
 32 33  2  0  0  0
 33 34  1  0  0  0
 34 35  2  0  0  0
 35 36  1  0  0  0
 36 26  1  0  0  0
 26  1  1  0  0  0
  1  2  2  0  0  0
  2  3  1  0  0  0
  3  4  2  0  0  0
  4  5  1  0  0  0
  5  7  1  0  0  0
  7  8  1  0  0  0
  8  9  2  0  0  0
  8 11  1  0  0  0
 11 12  2  0  0  0
 12 13  1  0  0  0
 13 14  2  0  0  0
 14 15  1  0  0  0
 15 16  2  0  0  0
 14 17  1  0  0  0
 17 18  1  0  0  0
 18 19  1  0  0  0
 19 20  1  0  0  0
 20 21  1  0  0  0
 21 22  1  0  0  0
 20 23  1  0  0  0
 23 24  1  0  0  0
 23 25  1  0  0  0
  5  6  2  0  0  0
 36 37  2  0  0  0
 37 41  1  0  0  0
 41 42  1  0  0  0
 42 43  1  0  0  0
 43 44  1  0  0  0
 44 45  1  0  0  0
 45 46  1  0  0  0
 37 38  1  0  0  0
 38 39  2  0  0  0
 39 31  1  0  0  0
 39 34  1  0  0  0
  6  1  1  0  0  0
 16 11  1  0  0  0
 22 17  1  0  0  0
 28 40  1  0  0  0
  7 10  1  0  0  0
M  END
> <minimizedAffinity>
-6.80795

> <CNNscore>
0.2121575624

> <CNNaffinity>
6.5578470230

> <CNN_VS>
1.3912968636

> <CNNaffinity_variance>
0.0970395133

$$$$
[H]c1nc(N([H])C(=O)c2c([H])c([H])c(C3([H])C([H])([H])C([H])([H])N(C([H])(C([H])([H])[H])C([H])([H])[H])C([H])([H])C3([H])[H])c([H])c2[H])c([H])c(Oc2c(OC([H])([H])C([H])([H])C([H])([H])OC([H])([H])[H])c([H])c3c(c2[H])c([H])c([H])n3C(=O)N([H])C([H])([H])[H])c1[H]


 46 50  0  0  0  0  0  0  0  0999 V2000
    1.8205   18.2985  -18.2658 C   0  0  0  0  0  0  0  0  0  0  0  0
    2.8134   17.4305  -18.6892 C   0  0  0  0  0  0  0  0  0  0  0  0
    3.0650   17.3591  -20.0362 C   0  0  0  0  0  0  0  0  0  0  0  0
    2.4032   18.0760  -20.9116 N   0  0  0  0  0  0  0  0  0  0  0  0
    1.4297   18.9341  -20.5699 C   0  0  0  0  0  0  0  0  0  0  0  0
    1.1356   19.0475  -19.2374 C   0  0  0  0  0  0  0  0  0  0  0  0
    0.7701   19.6679  -21.5774 N   0  0  0  0  0  0  0  0  0  0  0  0
    1.1863   20.8037  -22.2781 C   0  0  0  0  0  0  0  0  0  0  0  0
    2.2603   21.3742  -22.0947 O   0  0  0  0  0  0  0  0  0  0  0  0
   -0.2115   19.2696  -21.8474 H   0  0  0  0  0  0  0  0  0  0  0  0
    0.3035   21.3850  -23.3163 C   0  0  0  0  0  0  0  0  0  0  0  0
   -1.0262   21.5140  -23.0713 C   0  0  0  0  0  0  0  0  0  0  0  0
   -1.8527   22.0470  -24.0531 C   0  0  0  0  0  0  0  0  0  0  0  0
   -1.3942   22.4598  -25.2796 C   0  0  0  0  0  0  0  0  0  0  0  0
   -0.0271   22.3155  -25.5043 C   0  0  0  0  0  0  0  0  0  0  0  0
    0.8036   21.7853  -24.5337 C   0  0  0  0  0  0  0  0  0  0  0  0
   -2.3170   23.0203  -26.2510 C   0  0  0  0  0  0  0  0  0  0  0  0
   -3.7585   22.5193  -26.0424 C   0  0  0  0  0  0  0  0  0  0  0  0
   -4.6890   23.3330  -26.9190 C   0  0  0  0  0  0  0  0  0  0  0  0
   -3.8973   24.1433  -27.7744 N   0  0  0  0  0  0  0  0  0  0  0  0
   -2.9761   23.4430  -28.5904 C   0  0  0  0  0  0  0  0  0  0  0  0
   -1.9181   22.8152  -27.6934 C   0  0  0  0  0  0  0  0  0  0  0  0
   -4.4466   25.3500  -28.2486 C   0  0  0  0  0  0  0  0  0  0  0  0
   -4.4131   25.2981  -29.7818 C   0  0  0  0  0  0  0  0  0  0  0  0
   -5.9125   25.4128  -27.8746 C   0  0  0  0  0  0  0  0  0  0  0  0
    1.5726   18.3733  -16.9319 O   0  0  0  0  0  0  0  0  0  0  0  0
    1.6105   25.3033  -11.1477 C   0  0  0  0  0  0  0  0  0  0  0  0
    2.1436   24.8016  -12.4115 N   0  0  0  0  0  0  0  0  0  0  0  0
    1.7434   23.5021  -12.8561 C   0  0  0  0  0  0  0  0  0  0  0  0
    0.9336   22.8260  -12.1295 O   0  0  0  0  0  0  0  0  0  0  0  0
    2.2243   22.9608  -14.0730 N   0  0  0  0  0  0  0  0  0  0  0  0
    3.0722   23.6194  -14.8756 C   0  0  0  0  0  0  0  0  0  0  0  0
    3.3721   22.8782  -15.9877 C   0  0  0  0  0  0  0  0  0  0  0  0
    2.6672   21.6988  -15.8597 C   0  0  0  0  0  0  0  0  0  0  0  0
    2.5324   20.5669  -16.6076 C   0  0  0  0  0  0  0  0  0  0  0  0
    1.7372   19.5324  -16.2102 C   0  0  0  0  0  0  0  0  0  0  0  0
    1.0075   19.5842  -14.9929 C   0  0  0  0  0  0  0  0  0  0  0  0
    1.1644   20.7670  -14.2364 C   0  0  0  0  0  0  0  0  0  0  0  0
    1.9585   21.7743  -14.6544 C   0  0  0  0  0  0  0  0  0  0  0  0
    2.7896   25.3739  -12.9593 H   0  0  0  0  0  0  0  0  0  0  0  0
    0.2577   18.6021  -14.6319 O   0  0  0  0  0  0  0  0  0  0  0  0
   -0.4798   17.6265  -14.2748 C   0  0  0  0  0  0  0  0  0  0  0  0
    0.2980   16.3166  -14.0625 C   0  0  0  0  0  0  0  0  0  0  0  0
    0.1150   15.8558  -12.6495 C   0  0  0  0  0  0  0  0  0  0  0  0
    0.4438   16.8560  -11.7647 O   0  0  0  0  0  0  0  0  0  0  0  0
    1.0033   16.3805  -10.6140 C   0  0  0  0  0  0  0  0  0  0  0  0
 27 28  1  0  0  0
 28 29  1  0  0  0
 29 30  2  0  0  0
 29 31  1  0  0  0
 31 32  1  0  0  0
 32 33  2  0  0  0
 33 34  1  0  0  0
 34 35  2  0  0  0
 35 36  1  0  0  0
 36 26  1  0  0  0
 26  1  1  0  0  0
  1  2  2  0  0  0
  2  3  1  0  0  0
  3  4  2  0  0  0
  4  5  1  0  0  0
  5  7  1  0  0  0
  7  8  1  0  0  0
  8  9  2  0  0  0
  8 11  1  0  0  0
 11 12  2  0  0  0
 12 13  1  0  0  0
 13 14  2  0  0  0
 14 15  1  0  0  0
 15 16  2  0  0  0
 14 17  1  0  0  0
 17 18  1  0  0  0
 18 19  1  0  0  0
 19 20  1  0  0  0
 20 21  1  0  0  0
 21 22  1  0  0  0
 20 23  1  0  0  0
 23 24  1  0  0  0
 23 25  1  0  0  0
  5  6  2  0  0  0
 36 37  2  0  0  0
 37 41  1  0  0  0
 41 42  1  0  0  0
 42 43  1  0  0  0
 43 44  1  0  0  0
 44 45  1  0  0  0
 45 46  1  0  0  0
 37 38  1  0  0  0
 38 39  2  0  0  0
 39 31  1  0  0  0
 39 34  1  0  0  0
  6  1  1  0  0  0
 16 11  1  0  0  0
 22 17  1  0  0  0
 28 40  1  0  0  0
  7 10  1  0  0  0
M  END
> <minimizedAffinity>
-6.96752

> <CNNscore>
0.1707333475

> <CNNaffinity>
6.2270145416

> <CNN_VS>
1.0631589890

> <CNNaffinity_variance>
0.3157784343

$$$$
[H]c1nc(N([H])C(=O)c2c([H])c([H])c(C3([H])C([H])([H])C([H])([H])N(C([H])(C([H])([H])[H])C([H])([H])[H])C([H])([H])C3([H])[H])c([H])c2[H])c([H])c(Oc2c(OC([H])([H])C([H])([H])C([H])([H])OC([H])([H])[H])c([H])c3c(c2[H])c([H])c([H])n3C(=O)N([H])C([H])([H])[H])c1[H]


 46 50  0  0  0  0  0  0  0  0999 V2000
   -3.8863   20.0792  -16.7509 C   0  0  0  0  0  0  0  0  0  0  0  0
   -2.5948   19.6124  -16.5713 C   0  0  0  0  0  0  0  0  0  0  0  0
   -1.7136   19.7602  -17.6126 C   0  0  0  0  0  0  0  0  0  0  0  0
   -2.0571   20.3195  -18.7472 N   0  0  0  0  0  0  0  0  0  0  0  0
   -3.2901   20.7913  -18.9876 C   0  0  0  0  0  0  0  0  0  0  0  0
   -4.2124   20.6714  -17.9827 C   0  0  0  0  0  0  0  0  0  0  0  0
   -3.5733   21.3806  -20.2371 N   0  0  0  0  0  0  0  0  0  0  0  0
   -4.0450   22.6616  -20.5383 C   0  0  0  0  0  0  0  0  0  0  0  0
   -4.3113   23.5163  -19.6950 O   0  0  0  0  0  0  0  0  0  0  0  0
   -3.3802   20.7265  -21.0914 H   0  0  0  0  0  0  0  0  0  0  0  0
   -4.2486   23.0504  -21.9535 C   0  0  0  0  0  0  0  0  0  0  0  0
   -4.7770   22.1540  -22.8264 C   0  0  0  0  0  0  0  0  0  0  0  0
   -4.9534   22.5183  -24.1558 C   0  0  0  0  0  0  0  0  0  0  0  0
   -4.6191   23.7559  -24.6473 C   0  0  0  0  0  0  0  0  0  0  0  0
   -4.0788   24.6549  -23.7308 C   0  0  0  0  0  0  0  0  0  0  0  0
   -3.8985   24.3015  -22.4057 C   0  0  0  0  0  0  0  0  0  0  0  0
   -4.8457   24.0689  -26.0473 C   0  0  0  0  0  0  0  0  0  0  0  0
   -4.9450   25.5856  -26.2970 C   0  0  0  0  0  0  0  0  0  0  0  0
   -4.9261   25.8358  -27.7915 C   0  0  0  0  0  0  0  0  0  0  0  0
   -5.0201   24.5831  -28.4525 N   0  0  0  0  0  0  0  0  0  0  0  0
   -6.1569   23.8069  -28.1206 C   0  0  0  0  0  0  0  0  0  0  0  0
   -6.0400   23.3794  -26.6639 C   0  0  0  0  0  0  0  0  0  0  0  0
   -4.4680   24.4651  -29.7424 C   0  0  0  0  0  0  0  0  0  0  0  0
   -5.6346   24.4167  -30.7380 C   0  0  0  0  0  0  0  0  0  0  0  0
   -3.7003   25.7271  -30.0747 C   0  0  0  0  0  0  0  0  0  0  0  0
   -4.7593   19.9371  -15.7193 O   0  0  0  0  0  0  0  0  0  0  0  0
   -9.4889   26.6753  -12.0166 C   0  0  0  0  0  0  0  0  0  0  0  0
   -8.1929   26.0026  -12.0446 N   0  0  0  0  0  0  0  0  0  0  0  0
   -8.0248   24.8753  -12.9091 C   0  0  0  0  0  0  0  0  0  0  0  0
   -9.0168   24.4966  -13.6257 O   0  0  0  0  0  0  0  0  0  0  0  0
   -6.7923   24.1818  -12.9821 N   0  0  0  0  0  0  0  0  0  0  0  0
   -5.7193   24.5303  -12.2582 C   0  0  0  0  0  0  0  0  0  0  0  0
   -4.6591   23.7043  -12.5222 C   0  0  0  0  0  0  0  0  0  0  0  0
   -5.1076   22.7989  -13.4620 C   0  0  0  0  0  0  0  0  0  0  0  0
   -4.5583   21.7426  -14.1261 C   0  0  0  0  0  0  0  0  0  0  0  0
   -5.2724   21.0096  -15.0280 C   0  0  0  0  0  0  0  0  0  0  0  0
   -6.6287   21.3125  -15.3206 C   0  0  0  0  0  0  0  0  0  0  0  0
   -7.1744   22.4108  -14.6193 C   0  0  0  0  0  0  0  0  0  0  0  0
   -6.4441   23.1177  -13.7323 C   0  0  0  0  0  0  0  0  0  0  0  0
   -7.4283   26.3369  -11.4542 H   0  0  0  0  0  0  0  0  0  0  0  0
   -7.2897   20.6147  -16.1769 O   0  0  0  0  0  0  0  0  0  0  0  0
   -7.9427   19.9192  -17.0213 C   0  0  0  0  0  0  0  0  0  0  0  0
   -8.2534   20.6729  -18.3257 C   0  0  0  0  0  0  0  0  0  0  0  0
   -8.1564   22.1470  -18.0806 C   0  0  0  0  0  0  0  0  0  0  0  0
   -9.4058   22.7213  -18.0651 O   0  0  0  0  0  0  0  0  0  0  0  0
  -10.2869   22.0921  -18.8963 C   0  0  0  0  0  0  0  0  0  0  0  0
 27 28  1  0  0  0
 28 29  1  0  0  0
 29 30  2  0  0  0
 29 31  1  0  0  0
 31 32  1  0  0  0
 32 33  2  0  0  0
 33 34  1  0  0  0
 34 35  2  0  0  0
 35 36  1  0  0  0
 36 26  1  0  0  0
 26  1  1  0  0  0
  1  2  2  0  0  0
  2  3  1  0  0  0
  3  4  2  0  0  0
  4  5  1  0  0  0
  5  7  1  0  0  0
  7  8  1  0  0  0
  8  9  2  0  0  0
  8 11  1  0  0  0
 11 12  2  0  0  0
 12 13  1  0  0  0
 13 14  2  0  0  0
 14 15  1  0  0  0
 15 16  2  0  0  0
 14 17  1  0  0  0
 17 18  1  0  0  0
 18 19  1  0  0  0
 19 20  1  0  0  0
 20 21  1  0  0  0
 21 22  1  0  0  0
 20 23  1  0  0  0
 23 24  1  0  0  0
 23 25  1  0  0  0
  5  6  2  0  0  0
 36 37  2  0  0  0
 37 41  1  0  0  0
 41 42  1  0  0  0
 42 43  1  0  0  0
 43 44  1  0  0  0
 44 45  1  0  0  0
 45 46  1  0  0  0
 37 38  1  0  0  0
 38 39  2  0  0  0
 39 31  1  0  0  0
 39 34  1  0  0  0
  6  1  1  0  0  0
 16 11  1  0  0  0
 22 17  1  0  0  0
 28 40  1  0  0  0
  7 10  1  0  0  0
M  END
> <minimizedAffinity>
-6.77804

> <CNNscore>
0.1552032232

> <CNNaffinity>
6.2044749260

> <CNN_VS>
0.9629545212

> <CNNaffinity_variance>
0.5693567395

$$$$
[H]c1nc(N([H])C(=O)c2c([H])c([H])c(C3([H])C([H])([H])C([H])([H])N(C([H])(C([H])([H])[H])C([H])([H])[H])C([H])([H])C3([H])[H])c([H])c2[H])c([H])c(Oc2c(OC([H])([H])C([H])([H])C([H])([H])OC([H])([H])[H])c([H])c3c(c2[H])c([H])c([H])n3C(=O)N([H])C([H])([H])[H])c1[H]


 46 50  0  0  0  0  0  0  0  0999 V2000
   -5.6416   23.7007  -20.8497 C   0  0  0  0  0  0  0  0  0  0  0  0
   -5.8725   25.0534  -20.6620 C   0  0  0  0  0  0  0  0  0  0  0  0
   -6.6935   25.4216  -19.6260 C   0  0  0  0  0  0  0  0  0  0  0  0
   -7.2517   24.5438  -18.8284 N   0  0  0  0  0  0  0  0  0  0  0  0
   -7.0714   23.2201  -18.9550 C   0  0  0  0  0  0  0  0  0  0  0  0
   -6.2601   22.7941  -19.9724 C   0  0  0  0  0  0  0  0  0  0  0  0
   -7.7092   22.3460  -18.0507 N   0  0  0  0  0  0  0  0  0  0  0  0
   -8.8121   21.5080  -18.2398 C   0  0  0  0  0  0  0  0  0  0  0  0
   -9.4367   21.4149  -19.2951 O   0  0  0  0  0  0  0  0  0  0  0  0
   -7.2543   22.3245  -17.0569 H   0  0  0  0  0  0  0  0  0  0  0  0
   -9.2868   20.6623  -17.1197 C   0  0  0  0  0  0  0  0  0  0  0  0
   -8.3903   20.1582  -16.2326 C   0  0  0  0  0  0  0  0  0  0  0  0
   -8.8384   19.3541  -15.1915 C   0  0  0  0  0  0  0  0  0  0  0  0
  -10.1602   19.0346  -15.0032 C   0  0  0  0  0  0  0  0  0  0  0  0
  -11.0575   19.5643  -15.9275 C   0  0  0  0  0  0  0  0  0  0  0  0
  -10.6212   20.3649  -16.9678 C   0  0  0  0  0  0  0  0  0  0  0  0
  -10.5549   18.1991  -13.8828 C   0  0  0  0  0  0  0  0  0  0  0  0
  -11.9302   17.5411  -14.1022 C   0  0  0  0  0  0  0  0  0  0  0  0
  -12.1514   16.5019  -13.0216 C   0  0  0  0  0  0  0  0  0  0  0  0
  -11.1078   16.6251  -12.0672 N   0  0  0  0  0  0  0  0  0  0  0  0
  -10.9802   17.9030  -11.4708 C   0  0  0  0  0  0  0  0  0  0  0  0
  -10.5384   18.8921  -12.5407 C   0  0  0  0  0  0  0  0  0  0  0  0
  -10.7463   15.4866  -11.3217 C   0  0  0  0  0  0  0  0  0  0  0  0
  -10.0988   14.4896  -12.2918 C   0  0  0  0  0  0  0  0  0  0  0  0
   -9.6602   15.8596  -10.3349 C   0  0  0  0  0  0  0  0  0  0  0  0
   -4.8257   23.3345  -21.8728 O   0  0  0  0  0  0  0  0  0  0  0  0
   -4.7270   25.5620  -30.6199 C   0  0  0  0  0  0  0  0  0  0  0  0
   -5.5680   25.4227  -29.4340 N   0  0  0  0  0  0  0  0  0  0  0  0
   -4.9648   24.9806  -28.2145 C   0  0  0  0  0  0  0  0  0  0  0  0
   -3.7102   24.7221  -28.2075 O   0  0  0  0  0  0  0  0  0  0  0  0
   -5.7265   24.8272  -27.0306 N   0  0  0  0  0  0  0  0  0  0  0  0
   -7.0413   25.0821  -26.9752 C   0  0  0  0  0  0  0  0  0  0  0  0
   -7.5318   24.8622  -25.7155 C   0  0  0  0  0  0  0  0  0  0  0  0
   -6.4563   24.4499  -24.9555 C   0  0  0  0  0  0  0  0  0  0  0  0
   -6.2753   24.0834  -23.6550 C   0  0  0  0  0  0  0  0  0  0  0  0
   -5.0535   23.7120  -23.1755 C   0  0  0  0  0  0  0  0  0  0  0  0
   -3.9055   23.6892  -24.0112 C   0  0  0  0  0  0  0  0  0  0  0  0
   -4.1195   24.0729  -25.3539 C   0  0  0  0  0  0  0  0  0  0  0  0
   -5.3398   24.4353  -25.8005 C   0  0  0  0  0  0  0  0  0  0  0  0
   -6.5661   25.6378  -29.4845 H   0  0  0  0  0  0  0  0  0  0  0  0
   -2.7577   23.3403  -23.5445 O   0  0  0  0  0  0  0  0  0  0  0  0
   -1.6243   22.9914  -23.0787 C   0  0  0  0  0  0  0  0  0  0  0  0
   -0.9496   21.8695  -23.8862 C   0  0  0  0  0  0  0  0  0  0  0  0
   -0.0656   22.4754  -24.9321 C   0  0  0  0  0  0  0  0  0  0  0  0
   -0.7242   22.5613  -26.1362 O   0  0  0  0  0  0  0  0  0  0  0  0
    0.1232   22.5246  -27.2057 C   0  0  0  0  0  0  0  0  0  0  0  0
 27 28  1  0  0  0
 28 29  1  0  0  0
 29 30  2  0  0  0
 29 31  1  0  0  0
 31 32  1  0  0  0
 32 33  2  0  0  0
 33 34  1  0  0  0
 34 35  2  0  0  0
 35 36  1  0  0  0
 36 26  1  0  0  0
 26  1  1  0  0  0
  1  2  2  0  0  0
  2  3  1  0  0  0
  3  4  2  0  0  0
  4  5  1  0  0  0
  5  7  1  0  0  0
  7  8  1  0  0  0
  8  9  2  0  0  0
  8 11  1  0  0  0
 11 12  2  0  0  0
 12 13  1  0  0  0
 13 14  2  0  0  0
 14 15  1  0  0  0
 15 16  2  0  0  0
 14 17  1  0  0  0
 17 18  1  0  0  0
 18 19  1  0  0  0
 19 20  1  0  0  0
 20 21  1  0  0  0
 21 22  1  0  0  0
 20 23  1  0  0  0
 23 24  1  0  0  0
 23 25  1  0  0  0
  5  6  2  0  0  0
 36 37  2  0  0  0
 37 41  1  0  0  0
 41 42  1  0  0  0
 42 43  1  0  0  0
 43 44  1  0  0  0
 44 45  1  0  0  0
 45 46  1  0  0  0
 37 38  1  0  0  0
 38 39  2  0  0  0
 39 31  1  0  0  0
 39 34  1  0  0  0
  6  1  1  0  0  0
 16 11  1  0  0  0
 22 17  1  0  0  0
 28 40  1  0  0  0
  7 10  1  0  0  0
M  END
> <minimizedAffinity>
-7.21334

> <CNNscore>
0.1267172843

> <CNNaffinity>
5.8584356308

> <CNN_VS>
0.7423650622

> <CNNaffinity_variance>
0.0939520597

$$$$
[H]c1nc(N([H])C(=O)c2c([H])c([H])c(C3([H])C([H])([H])C([H])([H])N(C([H])(C([H])([H])[H])C([H])([H])[H])C([H])([H])C3([H])[H])c([H])c2[H])c([H])c(Oc2c(OC([H])([H])C([H])([H])C([H])([H])OC([H])([H])[H])c([H])c3c(c2[H])c([H])c([H])n3C(=O)N([H])C([H])([H])[H])c1[H]


 46 50  0  0  0  0  0  0  0  0999 V2000
   -2.9185   22.4739  -26.0723 C   0  0  0  0  0  0  0  0  0  0  0  0
   -2.0478   22.8818  -27.0692 C   0  0  0  0  0  0  0  0  0  0  0  0
   -0.7030   22.7374  -26.8384 C   0  0  0  0  0  0  0  0  0  0  0  0
   -0.2335   22.2346  -25.7226 N   0  0  0  0  0  0  0  0  0  0  0  0
   -1.0203   21.8216  -24.7171 C   0  0  0  0  0  0  0  0  0  0  0  0
   -2.3731   21.9411  -24.8921 C   0  0  0  0  0  0  0  0  0  0  0  0
   -0.4307   21.2905  -23.5514 N   0  0  0  0  0  0  0  0  0  0  0  0
   -0.4800   21.7501  -22.2320 C   0  0  0  0  0  0  0  0  0  0  0  0
   -1.0784   22.7635  -21.8748 O   0  0  0  0  0  0  0  0  0  0  0  0
    0.1412   20.3742  -23.7199 H   0  0  0  0  0  0  0  0  0  0  0  0
    0.2210   20.9930  -21.1687 C   0  0  0  0  0  0  0  0  0  0  0  0
    0.1588   19.6362  -21.1586 C   0  0  0  0  0  0  0  0  0  0  0  0
    0.8063   18.9307  -20.1515 C   0  0  0  0  0  0  0  0  0  0  0  0
    1.5199   19.5371  -19.1476 C   0  0  0  0  0  0  0  0  0  0  0  0
    1.5666   20.9288  -19.1819 C   0  0  0  0  0  0  0  0  0  0  0  0
    0.9246   21.6400  -20.1796 C   0  0  0  0  0  0  0  0  0  0  0  0
    2.1821   18.7321  -18.1363 C   0  0  0  0  0  0  0  0  0  0  0  0
    3.6791   18.5315  -18.4389 C   0  0  0  0  0  0  0  0  0  0  0  0
    4.3420   17.9080  -17.2272 C   0  0  0  0  0  0  0  0  0  0  0  0
    3.3269   17.5434  -16.3043 N   0  0  0  0  0  0  0  0  0  0  0  0
    2.3406   16.6602  -16.8065 C   0  0  0  0  0  0  0  0  0  0  0  0
    1.5387   17.3907  -17.8750 C   0  0  0  0  0  0  0  0  0  0  0  0
    3.6554   17.4903  -14.9362 C   0  0  0  0  0  0  0  0  0  0  0  0
    3.8816   18.9322  -14.4624 C   0  0  0  0  0  0  0  0  0  0  0  0
    2.4604   16.9869  -14.1545 C   0  0  0  0  0  0  0  0  0  0  0  0
   -4.2509   22.6126  -26.3007 O   0  0  0  0  0  0  0  0  0  0  0  0
  -10.0914   26.2459  -20.4552 C   0  0  0  0  0  0  0  0  0  0  0  0
   -9.3755   25.0277  -20.8245 N   0  0  0  0  0  0  0  0  0  0  0  0
   -8.5103   25.0601  -21.9633 C   0  0  0  0  0  0  0  0  0  0  0  0
   -8.3960   26.1554  -22.6177 O   0  0  0  0  0  0  0  0  0  0  0  0
   -7.7880   23.9124  -22.3710 N   0  0  0  0  0  0  0  0  0  0  0  0
   -7.8657   22.7391  -21.7274 C   0  0  0  0  0  0  0  0  0  0  0  0
   -7.0643   21.7997  -22.3198 C   0  0  0  0  0  0  0  0  0  0  0  0
   -6.4604   22.4335  -23.3866 C   0  0  0  0  0  0  0  0  0  0  0  0
   -5.5724   22.0654  -24.3533 C   0  0  0  0  0  0  0  0  0  0  0  0
   -5.1440   22.9407  -25.3077 C   0  0  0  0  0  0  0  0  0  0  0  0
   -5.6040   24.2839  -25.3410 C   0  0  0  0  0  0  0  0  0  0  0  0
   -6.5235   24.6401  -24.3292 C   0  0  0  0  0  0  0  0  0  0  0  0
   -6.9298   23.7527  -23.3979 C   0  0  0  0  0  0  0  0  0  0  0  0
   -9.4976   24.1742  -20.2754 H   0  0  0  0  0  0  0  0  0  0  0  0
   -5.1884   25.1004  -26.2452 O   0  0  0  0  0  0  0  0  0  0  0  0
   -4.7719   25.9089  -27.1374 C   0  0  0  0  0  0  0  0  0  0  0  0
   -5.2488   25.5540  -28.5561 C   0  0  0  0  0  0  0  0  0  0  0  0
   -4.0836   25.0717  -29.3636 C   0  0  0  0  0  0  0  0  0  0  0  0
   -3.9746   25.7840  -30.5348 O   0  0  0  0  0  0  0  0  0  0  0  0
   -5.1496   25.8463  -31.2267 C   0  0  0  0  0  0  0  0  0  0  0  0
 27 28  1  0  0  0
 28 29  1  0  0  0
 29 30  2  0  0  0
 29 31  1  0  0  0
 31 32  1  0  0  0
 32 33  2  0  0  0
 33 34  1  0  0  0
 34 35  2  0  0  0
 35 36  1  0  0  0
 36 26  1  0  0  0
 26  1  1  0  0  0
  1  2  2  0  0  0
  2  3  1  0  0  0
  3  4  2  0  0  0
  4  5  1  0  0  0
  5  7  1  0  0  0
  7  8  1  0  0  0
  8  9  2  0  0  0
  8 11  1  0  0  0
 11 12  2  0  0  0
 12 13  1  0  0  0
 13 14  2  0  0  0
 14 15  1  0  0  0
 15 16  2  0  0  0
 14 17  1  0  0  0
 17 18  1  0  0  0
 18 19  1  0  0  0
 19 20  1  0  0  0
 20 21  1  0  0  0
 21 22  1  0  0  0
 20 23  1  0  0  0
 23 24  1  0  0  0
 23 25  1  0  0  0
  5  6  2  0  0  0
 36 37  2  0  0  0
 37 41  1  0  0  0
 41 42  1  0  0  0
 42 43  1  0  0  0
 43 44  1  0  0  0
 44 45  1  0  0  0
 45 46  1  0  0  0
 37 38  1  0  0  0
 38 39  2  0  0  0
 39 31  1  0  0  0
 39 34  1  0  0  0
  6  1  1  0  0  0
 16 11  1  0  0  0
 22 17  1  0  0  0
 28 40  1  0  0  0
  7 10  1  0  0  0
M  END
> <minimizedAffinity>
-7.82032

> <CNNscore>
0.1186734289

> <CNNaffinity>
6.7798638344

> <CNN_VS>
0.8045896888

> <CNNaffinity_variance>
0.0797709152

$$$$
[H]c1nc(N([H])C(=O)c2c([H])c([H])c(C3([H])C([H])([H])C([H])([H])N(C([H])(C([H])([H])[H])C([H])([H])[H])C([H])([H])C3([H])[H])c([H])c2[H])c([H])c(Oc2c(OC([H])([H])C([H])([H])C([H])([H])OC([H])([H])[H])c([H])c3c(c2[H])c([H])c([H])n3C(=O)N([H])C([H])([H])[H])c1[H]


 46 50  0  0  0  0  0  0  0  0999 V2000
   -6.5208   21.6773  -21.5271 C   0  0  0  0  0  0  0  0  0  0  0  0
   -6.5857   22.0076  -22.8706 C   0  0  0  0  0  0  0  0  0  0  0  0
   -5.4264   22.4105  -23.4840 C   0  0  0  0  0  0  0  0  0  0  0  0
   -4.2853   22.4887  -22.8436 N   0  0  0  0  0  0  0  0  0  0  0  0
   -4.1529   22.1851  -21.5432 C   0  0  0  0  0  0  0  0  0  0  0  0
   -5.2781   21.7757  -20.8789 C   0  0  0  0  0  0  0  0  0  0  0  0
   -2.8862   22.2954  -20.9332 N   0  0  0  0  0  0  0  0  0  0  0  0
   -1.6670   21.7091  -21.2854 C   0  0  0  0  0  0  0  0  0  0  0  0
   -1.5157   20.9486  -22.2401 O   0  0  0  0  0  0  0  0  0  0  0  0
   -2.8694   22.9504  -20.0582 H   0  0  0  0  0  0  0  0  0  0  0  0
   -0.4576   22.0004  -20.4806 C   0  0  0  0  0  0  0  0  0  0  0  0
   -0.4913   22.9922  -19.5532 C   0  0  0  0  0  0  0  0  0  0  0  0
    0.6495   23.2711  -18.8103 C   0  0  0  0  0  0  0  0  0  0  0  0
    1.8310   22.5885  -18.9612 C   0  0  0  0  0  0  0  0  0  0  0  0
    1.8377   21.5774  -19.9193 C   0  0  0  0  0  0  0  0  0  0  0  0
    0.7077   21.2928  -20.6645 C   0  0  0  0  0  0  0  0  0  0  0  0
    2.9783   22.9279  -18.1380 C   0  0  0  0  0  0  0  0  0  0  0  0
    3.1908   21.9221  -16.9909 C   0  0  0  0  0  0  0  0  0  0  0  0
    4.5331   22.1972  -16.3437 C   0  0  0  0  0  0  0  0  0  0  0  0
    5.0475   23.4047  -16.8846 N   0  0  0  0  0  0  0  0  0  0  0  0
    4.2130   24.5389  -16.7357 C   0  0  0  0  0  0  0  0  0  0  0  0
    2.9622   24.3310  -17.5788 C   0  0  0  0  0  0  0  0  0  0  0  0
    6.4437   23.5850  -16.9081 C   0  0  0  0  0  0  0  0  0  0  0  0
    7.0871   22.1935  -16.8429 C   0  0  0  0  0  0  0  0  0  0  0  0
    6.8508   24.1603  -18.2482 C   0  0  0  0  0  0  0  0  0  0  0  0
   -7.6672   21.2744  -20.9188 O   0  0  0  0  0  0  0  0  0  0  0  0
   -8.9093   22.1146  -12.0175 C   0  0  0  0  0  0  0  0  0  0  0  0
   -8.5027   21.2038  -13.0843 N   0  0  0  0  0  0  0  0  0  0  0  0
   -8.5165   21.6793  -14.4334 C   0  0  0  0  0  0  0  0  0  0  0  0
   -8.8859   22.8854  -14.6565 O   0  0  0  0  0  0  0  0  0  0  0  0
   -8.1322   20.8452  -15.5112 N   0  0  0  0  0  0  0  0  0  0  0  0
   -7.7363   19.5758  -15.3414 C   0  0  0  0  0  0  0  0  0  0  0  0
   -7.4136   18.9972  -16.5401 C   0  0  0  0  0  0  0  0  0  0  0  0
   -7.6229   19.9673  -17.4989 C   0  0  0  0  0  0  0  0  0  0  0  0
   -7.4917   20.0312  -18.8544 C   0  0  0  0  0  0  0  0  0  0  0  0
   -7.7842   21.1657  -19.5529 C   0  0  0  0  0  0  0  0  0  0  0  0
   -8.2413   22.3408  -18.8993 C   0  0  0  0  0  0  0  0  0  0  0  0
   -8.3691   22.2486  -17.4954 C   0  0  0  0  0  0  0  0  0  0  0  0
   -8.0727   21.1127  -16.8308 C   0  0  0  0  0  0  0  0  0  0  0  0
   -8.2170   20.2479  -12.8619 H   0  0  0  0  0  0  0  0  0  0  0  0
   -8.5100   23.4058  -19.5706 O   0  0  0  0  0  0  0  0  0  0  0  0
   -8.7712   24.4625  -20.2327 C   0  0  0  0  0  0  0  0  0  0  0  0
   -7.6389   25.5029  -20.1972 C   0  0  0  0  0  0  0  0  0  0  0  0
   -6.8780   25.4504  -21.4859 C   0  0  0  0  0  0  0  0  0  0  0  0
   -7.5094   26.1945  -22.4549 O   0  0  0  0  0  0  0  0  0  0  0  0
   -7.5102   25.5819  -23.6747 C   0  0  0  0  0  0  0  0  0  0  0  0
 27 28  1  0  0  0
 28 29  1  0  0  0
 29 30  2  0  0  0
 29 31  1  0  0  0
 31 32  1  0  0  0
 32 33  2  0  0  0
 33 34  1  0  0  0
 34 35  2  0  0  0
 35 36  1  0  0  0
 36 26  1  0  0  0
 26  1  1  0  0  0
  1  2  2  0  0  0
  2  3  1  0  0  0
  3  4  2  0  0  0
  4  5  1  0  0  0
  5  7  1  0  0  0
  7  8  1  0  0  0
  8  9  2  0  0  0
  8 11  1  0  0  0
 11 12  2  0  0  0
 12 13  1  0  0  0
 13 14  2  0  0  0
 14 15  1  0  0  0
 15 16  2  0  0  0
 14 17  1  0  0  0
 17 18  1  0  0  0
 18 19  1  0  0  0
 19 20  1  0  0  0
 20 21  1  0  0  0
 21 22  1  0  0  0
 20 23  1  0  0  0
 23 24  1  0  0  0
 23 25  1  0  0  0
  5  6  2  0  0  0
 36 37  2  0  0  0
 37 41  1  0  0  0
 41 42  1  0  0  0
 42 43  1  0  0  0
 43 44  1  0  0  0
 44 45  1  0  0  0
 45 46  1  0  0  0
 37 38  1  0  0  0
 38 39  2  0  0  0
 39 31  1  0  0  0
 39 34  1  0  0  0
  6  1  1  0  0  0
 16 11  1  0  0  0
 22 17  1  0  0  0
 28 40  1  0  0  0
  7 10  1  0  0  0
M  END
> <minimizedAffinity>
-6.68285

> <CNNscore>
0.1170196608

> <CNNaffinity>
5.9478526115

> <CNN_VS>
0.6960157156

> <CNNaffinity_variance>
0.1179908365

$$$$
[H]c1nc(N([H])C(=O)c2c([H])c([H])c(C3([H])C([H])([H])C([H])([H])N(C([H])(C([H])([H])[H])C([H])([H])[H])C([H])([H])C3([H])[H])c([H])c2[H])c([H])c(Oc2c(OC([H])([H])C([H])([H])C([H])([H])OC([H])([H])[H])c([H])c3c(c2[H])c([H])c([H])n3C(=O)N([H])C([H])([H])[H])c1[H]


 46 50  0  0  0  0  0  0  0  0999 V2000
   -3.0092   21.8235  -24.5104 C   0  0  0  0  0  0  0  0  0  0  0  0
   -2.0616   21.9052  -25.5172 C   0  0  0  0  0  0  0  0  0  0  0  0
   -0.7409   21.9454  -25.1470 C   0  0  0  0  0  0  0  0  0  0  0  0
   -0.3636   21.9095  -23.8922 N   0  0  0  0  0  0  0  0  0  0  0  0
   -1.2284   21.8319  -22.8690 C   0  0  0  0  0  0  0  0  0  0  0  0
   -2.5614   21.7879  -23.1791 C   0  0  0  0  0  0  0  0  0  0  0  0
   -0.7352   21.7958  -21.5484 N   0  0  0  0  0  0  0  0  0  0  0  0
   -0.8675   22.7288  -20.5158 C   0  0  0  0  0  0  0  0  0  0  0  0
   -1.4663   23.7978  -20.6223 O   0  0  0  0  0  0  0  0  0  0  0  0
   -0.1740   20.8891  -21.3077 H   0  0  0  0  0  0  0  0  0  0  0  0
   -0.2612   22.4454  -19.1939 C   0  0  0  0  0  0  0  0  0  0  0  0
    0.9983   22.8777  -18.9265 C   0  0  0  0  0  0  0  0  0  0  0  0
    1.5681   22.5977  -17.6904 C   0  0  0  0  0  0  0  0  0  0  0  0
    0.9191   21.8968  -16.7043 C   0  0  0  0  0  0  0  0  0  0  0  0
   -0.3705   21.4650  -17.0055 C   0  0  0  0  0  0  0  0  0  0  0  0
   -0.9461   21.7380  -18.2333 C   0  0  0  0  0  0  0  0  0  0  0  0
    1.5746   21.6546  -15.4312 C   0  0  0  0  0  0  0  0  0  0  0  0
    1.8426   20.1572  -15.1890 C   0  0  0  0  0  0  0  0  0  0  0  0
    2.7424   20.0127  -13.9783 C   0  0  0  0  0  0  0  0  0  0  0  0
    2.8720   21.2872  -13.3669 N   0  0  0  0  0  0  0  0  0  0  0  0
    1.6556   21.8987  -12.9776 C   0  0  0  0  0  0  0  0  0  0  0  0
    0.8633   22.2375  -14.2330 C   0  0  0  0  0  0  0  0  0  0  0  0
    4.0377   21.5569  -12.6247 C   0  0  0  0  0  0  0  0  0  0  0  0
    5.0612   22.1749  -13.5864 C   0  0  0  0  0  0  0  0  0  0  0  0
    3.7403   22.6312  -11.6000 C   0  0  0  0  0  0  0  0  0  0  0  0
   -4.3174   21.7796  -24.8753 O   0  0  0  0  0  0  0  0  0  0  0  0
  -10.6062   26.8134  -20.8016 C   0  0  0  0  0  0  0  0  0  0  0  0
   -9.9700   25.4993  -20.8386 N   0  0  0  0  0  0  0  0  0  0  0  0
   -8.9363   25.2654  -21.7994 C   0  0  0  0  0  0  0  0  0  0  0  0
   -8.6075   26.2161  -22.5925 O   0  0  0  0  0  0  0  0  0  0  0  0
   -8.2805   24.0132  -21.8840 N   0  0  0  0  0  0  0  0  0  0  0  0
   -8.5798   22.9814  -21.0824 C   0  0  0  0  0  0  0  0  0  0  0  0
   -7.7955   21.8950  -21.3664 C   0  0  0  0  0  0  0  0  0  0  0  0
   -6.9680   22.2835  -22.4001 C   0  0  0  0  0  0  0  0  0  0  0  0
   -5.9805   21.6853  -23.1250 C   0  0  0  0  0  0  0  0  0  0  0  0
   -5.3182   22.3437  -24.1192 C   0  0  0  0  0  0  0  0  0  0  0  0
   -5.6263   23.6902  -24.4490 C   0  0  0  0  0  0  0  0  0  0  0  0
   -6.6531   24.2870  -23.6838 C   0  0  0  0  0  0  0  0  0  0  0  0
   -7.2913   23.6111  -22.7063 C   0  0  0  0  0  0  0  0  0  0  0  0
  -10.2649   24.7678  -20.1882 H   0  0  0  0  0  0  0  0  0  0  0  0
   -4.9907   24.3007  -25.3872 O   0  0  0  0  0  0  0  0  0  0  0  0
   -4.3585   24.9001  -26.3169 C   0  0  0  0  0  0  0  0  0  0  0  0
   -4.2934   24.0989  -27.6284 C   0  0  0  0  0  0  0  0  0  0  0  0
   -5.6769   23.6849  -28.0245 C   0  0  0  0  0  0  0  0  0  0  0  0
   -6.1333   24.4505  -29.0716 O   0  0  0  0  0  0  0  0  0  0  0  0
   -5.1424   24.7966  -29.9443 C   0  0  0  0  0  0  0  0  0  0  0  0
 27 28  1  0  0  0
 28 29  1  0  0  0
 29 30  2  0  0  0
 29 31  1  0  0  0
 31 32  1  0  0  0
 32 33  2  0  0  0
 33 34  1  0  0  0
 34 35  2  0  0  0
 35 36  1  0  0  0
 36 26  1  0  0  0
 26  1  1  0  0  0
  1  2  2  0  0  0
  2  3  1  0  0  0
  3  4  2  0  0  0
  4  5  1  0  0  0
  5  7  1  0  0  0
  7  8  1  0  0  0
  8  9  2  0  0  0
  8 11  1  0  0  0
 11 12  2  0  0  0
 12 13  1  0  0  0
 13 14  2  0  0  0
 14 15  1  0  0  0
 15 16  2  0  0  0
 14 17  1  0  0  0
 17 18  1  0  0  0
 18 19  1  0  0  0
 19 20  1  0  0  0
 20 21  1  0  0  0
 21 22  1  0  0  0
 20 23  1  0  0  0
 23 24  1  0  0  0
 23 25  1  0  0  0
  5  6  2  0  0  0
 36 37  2  0  0  0
 37 41  1  0  0  0
 41 42  1  0  0  0
 42 43  1  0  0  0
 43 44  1  0  0  0
 44 45  1  0  0  0
 45 46  1  0  0  0
 37 38  1  0  0  0
 38 39  2  0  0  0
 39 31  1  0  0  0
 39 34  1  0  0  0
  6  1  1  0  0  0
 16 11  1  0  0  0
 22 17  1  0  0  0
 28 40  1  0  0  0
  7 10  1  0  0  0
M  END
> <minimizedAffinity>
-8.19888

> <CNNscore>
0.1074436158

> <CNNaffinity>
6.2128238678

> <CNN_VS>
0.6675282717

> <CNNaffinity_variance>
0.2418406904

$$$$
